@<TRIPOS>MOLECULE
ZINC00000226
 22 22 0 0 0
SMALL
GASTEIGER

@<TRIPOS>ATOM
      1  C         -0.2670   -0.1390   -0.0020 C.ar    1  LIG1        0.0334
      2  C          0.1740   -1.4440   -0.2580 C.ar    1  LIG1       -0.0397
      3  C          1.5310   -1.7060   -0.4880 C.ar    1  LIG1       -0.0460
      4  C          2.4790   -0.6720   -0.4680 C.ar    1  LIG1        0.0589
      5  C          2.0220    0.6320   -0.2360 C.ar    1  LIG1       -0.0460
      6  C          0.6670    0.8960   -0.0080 C.ar    1  LIG1       -0.0397
      7  C         -3.7660    1.0860    0.7160 C.3     1  LIG1        0.0125
      8  C         -2.2790    1.2460    0.5400 C.2     1  LIG1        0.2141
      9  N         -1.6420    0.0520    0.2580 N.am    1  LIG1       -0.2857
     10  H         -2.2050   -0.7880    0.2560 H       1  LIG1        0.1548
     11  O         -1.7760    2.3640    0.6200 O.2     1  LIG1       -0.2758
     12  C          3.9540   -0.9530   -0.6810 C.2     1  LIG1        0.3368
     13  O          4.7460    0.0410   -0.6440 O.3     1  LIG1       -0.4771
     14  O          4.2880   -2.1640   -0.8770 O.2     1  LIG1       -0.2451
     15 H          -0.5069   -2.2193   -0.2773 H       1  LIG1        0.0636
     16 H           1.8376   -2.6735   -0.6748 H       1  LIG1        0.0626
     17 H           2.6974    1.4123   -0.2332 H       1  LIG1        0.0626
     18 H           0.3560    1.8661    0.1573 H       1  LIG1        0.0636
     19 H          -4.0280    0.0535    0.6153 H       1  LIG1        0.0323
     20 H          -4.2770    1.6581   -0.0300 H       1  LIG1        0.0323
     21 H          -4.0495    1.4328    1.6877 H       1  LIG1        0.0323
     22 H           4.4098    0.9025   -0.4931 H       1  LIG1        0.2954
@<TRIPOS>BOND
     1    14    12    2
     2    12    13    1
     3    12     4    1
     4     3     4   ar
     5     3     2   ar
     6     4     5   ar
     7     2     1   ar
     8     5     6   ar
     9     6     1   ar
    10     1     9    1
    11    10     9    1
    12     9     8   am
    13     8    11    2
    14     8     7    1
    15     2    15    1
    16     3    16    1
    17     5    17    1
    18     6    18    1
    19     7    19    1
    20     7    20    1
    21     7    21    1
    22    13    22    1
