MODEL 1
REMARK VINA RESULT:      -5.2      0.000      0.000
REMARK  Name = ZINC00000490
REMARK                            x       y       z     vdW  Elec       q    Type
REMARK                         _______ _______ _______ _____ _____    ______ ____
ROOT
ATOM      1  C   LIG    1       11.847  43.244  -4.612  0.00  0.00    +0.100 A 
ATOM      2  C   LIG    1       12.588  44.198  -5.323  0.00  0.00    +0.131 A 
ATOM      3  C   LIG    1       12.530  44.238  -6.719  0.00  0.00    +0.046 A 
ATOM      4  C   LIG    1       11.733  43.319  -7.395  0.00  0.00    +0.004 A 
ATOM      5  C   LIG    1       10.979  42.380  -6.702  0.00  0.00    +0.001 A 
ATOM      6  C   LIG    1       11.032  42.341  -5.307  0.00  0.00    +0.018 A 
ENDROOT
BRANCH   1   7
ATOM      7  C   LIG    1       11.997  43.192  -3.134  0.00  0.00    +0.342 C 
ATOM      8  O   LIG    1       12.375  44.141  -2.461  0.00  0.00    -0.245 OA
BRANCH   7  10
ATOM      9  C   LIG    1       11.240  41.960  -1.300  0.00  0.00    +0.280 C 
ATOM     10  O   LIG    1       11.662  41.965  -2.664  0.00  0.00    -0.464 OA
ENDBRANCH   7  10
ENDBRANCH   1   7
BRANCH   2  11
ATOM     11  O   LIG    1       11.674  43.298  -8.757  0.00  0.00    -0.506 OA
ATOM     12  H   LIG    1       10.787  43.675  -8.633  0.00  0.00    +0.292 HD
ENDBRANCH   2  11
TORSDOF 3
ENDMDL
MODEL 2
REMARK VINA RESULT:      -5.2      1.779      5.016
REMARK  Name = ZINC00000490
REMARK                            x       y       z     vdW  Elec       q    Type
REMARK                         _______ _______ _______ _____ _____    ______ ____
ROOT
ATOM      1  C   LIG    1       11.693  42.853  -3.997  0.00  0.00    +0.100 A 
ATOM      2  C   LIG    1       10.847  41.798  -3.629  0.00  0.00    +0.131 A 
ATOM      3  C   LIG    1       10.740  41.414  -2.289  0.00  0.00    +0.046 A 
ATOM      4  C   LIG    1       11.486  42.086  -1.325  0.00  0.00    +0.004 A 
ATOM      5  C   LIG    1       12.316  43.145  -1.674  0.00  0.00    +0.001 A 
ATOM      6  C   LIG    1       12.420  43.534  -3.011  0.00  0.00    +0.018 A 
ENDROOT
BRANCH   1   7
ATOM      7  C   LIG    1       11.830  43.177  -5.440  0.00  0.00    +0.342 C 
ATOM      8  O   LIG    1       11.488  42.420  -6.338  0.00  0.00    -0.245 OA
BRANCH   7  10
ATOM      9  C   LIG    1       13.097  44.567  -6.825  0.00  0.00    +0.280 C 
ATOM     10  O   LIG    1       12.378  44.407  -5.602  0.00  0.00    -0.464 OA
ENDBRANCH   7  10
ENDBRANCH   1   7
BRANCH   2  11
ATOM     11  O   LIG    1       11.441  41.722  -0.012  0.00  0.00    -0.506 OA
ATOM     12  H   LIG    1       12.345  42.054  -0.142  0.00  0.00    +0.292 HD
ENDBRANCH   2  11
TORSDOF 3
ENDMDL
MODEL 3
REMARK VINA RESULT:      -5.1     10.259     11.420
REMARK  Name = ZINC00000490
REMARK                            x       y       z     vdW  Elec       q    Type
REMARK                         _______ _______ _______ _____ _____    ______ ____
ROOT
ATOM      1  C   LIG    1       11.765  43.690   6.062  0.00  0.00    +0.100 A 
ATOM      2  C   LIG    1       12.526  43.571   4.891  0.00  0.00    +0.131 A 
ATOM      3  C   LIG    1       13.741  44.250   4.766  0.00  0.00    +0.046 A 
ATOM      4  C   LIG    1       14.186  45.050   5.815  0.00  0.00    +0.004 A 
ATOM      5  C   LIG    1       13.451  45.162   6.990  0.00  0.00    +0.001 A 
ATOM      6  C   LIG    1       12.239  44.480   7.118  0.00  0.00    +0.018 A 
ENDROOT
BRANCH   1   7
ATOM      7  C   LIG    1       10.446  43.008   6.120  0.00  0.00    +0.342 C 
ATOM      8  O   LIG    1       10.129  42.227   7.006  0.00  0.00    -0.245 OA
BRANCH   7  10
ATOM      9  C   LIG    1        8.915  44.564   5.289  0.00  0.00    +0.280 C 
ATOM     10  O   LIG    1        9.674  43.375   5.068  0.00  0.00    -0.464 OA
ENDBRANCH   7  10
ENDBRANCH   1   7
BRANCH   2  11
ATOM     11  O   LIG    1       15.346  45.759   5.725  0.00  0.00    -0.506 OA
ATOM     12  H   LIG    1       14.850  46.536   5.418  0.00  0.00    +0.292 HD
ENDBRANCH   2  11
TORSDOF 3
ENDMDL
MODEL 4
REMARK VINA RESULT:      -5.1     10.225     11.372
REMARK  Name = ZINC00000490
REMARK                            x       y       z     vdW  Elec       q    Type
REMARK                         _______ _______ _______ _____ _____    ______ ____
ROOT
ATOM      1  C   LIG    1       11.783  43.637   6.019  0.00  0.00    +0.100 A 
ATOM      2  C   LIG    1       12.197  44.452   7.082  0.00  0.00    +0.131 A 
ATOM      3  C   LIG    1       13.377  45.193   6.984  0.00  0.00    +0.046 A 
ATOM      4  C   LIG    1       14.140  45.111   5.824  0.00  0.00    +0.004 A 
ATOM      5  C   LIG    1       13.733  44.322   4.754  0.00  0.00    +0.001 A 
ATOM      6  C   LIG    1       12.551  43.584   4.848  0.00  0.00    +0.018 A 
ENDROOT
BRANCH   1   7
ATOM      7  C   LIG    1       10.561  42.811   6.196  0.00  0.00    +0.342 C 
ATOM      8  O   LIG    1       10.279  42.239   7.240  0.00  0.00    -0.245 OA
BRANCH   7  10
ATOM      9  C   LIG    1        8.783  43.761   5.016  0.00  0.00    +0.280 C 
ATOM     10  O   LIG    1        9.830  42.791   5.055  0.00  0.00    -0.464 OA
ENDBRANCH   7  10
ENDBRANCH   1   7
BRANCH   2  11
ATOM     11  O   LIG    1       15.317  45.788   5.698  0.00  0.00    -0.506 OA
ATOM     12  H   LIG    1       15.361  45.057   5.060  0.00  0.00    +0.292 HD
ENDBRANCH   2  11
TORSDOF 3
ENDMDL
MODEL 5
REMARK VINA RESULT:      -4.9     14.859     15.790
REMARK  Name = ZINC00000490
REMARK                            x       y       z     vdW  Elec       q    Type
REMARK                         _______ _______ _______ _____ _____    ______ ____
ROOT
ATOM      1  C   LIG    1       -1.587  47.330   1.422  0.00  0.00    +0.100 A 
ATOM      2  C   LIG    1       -1.179  47.468   0.088  0.00  0.00    +0.131 A 
ATOM      3  C   LIG    1       -2.052  47.999  -0.865  0.00  0.00    +0.046 A 
ATOM      4  C   LIG    1       -3.332  48.384  -0.478  0.00  0.00    +0.004 A 
ATOM      5  C   LIG    1       -3.744  48.270   0.845  0.00  0.00    +0.001 A 
ATOM      6  C   LIG    1       -2.871  47.744   1.800  0.00  0.00    +0.018 A 
ENDROOT
BRANCH   1   7
ATOM      7  C   LIG    1       -0.650  46.694   2.385  0.00  0.00    +0.342 C 
ATOM      8  O   LIG    1       -0.342  45.511   2.344  0.00  0.00    -0.245 OA
BRANCH   7  10
ATOM      9  C   LIG    1       -0.485  47.257   4.645  0.00  0.00    +0.280 C 
ATOM     10  O   LIG    1       -0.206  47.602   3.288  0.00  0.00    -0.464 OA
ENDBRANCH   7  10
ENDBRANCH   1   7
BRANCH   2  11
ATOM     11  O   LIG    1       -4.230  48.872  -1.380  0.00  0.00    -0.506 OA
ATOM     12  H   LIG    1       -4.539  47.983  -1.619  0.00  0.00    +0.292 HD
ENDBRANCH   2  11
TORSDOF 3
ENDMDL
MODEL 6
REMARK VINA RESULT:      -4.9     14.899     15.869
REMARK  Name = ZINC00000490
REMARK                            x       y       z     vdW  Elec       q    Type
REMARK                         _______ _______ _______ _____ _____    ______ ____
ROOT
ATOM      1  C   LIG    1       -1.660  47.158   1.314  0.00  0.00    +0.100 A 
ATOM      2  C   LIG    1       -2.968  47.412   1.747  0.00  0.00    +0.131 A 
ATOM      3  C   LIG    1       -3.891  48.016   0.889  0.00  0.00    +0.046 A 
ATOM      4  C   LIG    1       -3.497  48.367  -0.399  0.00  0.00    +0.004 A 
ATOM      5  C   LIG    1       -2.208  48.104  -0.849  0.00  0.00    +0.001 A 
ATOM      6  C   LIG    1       -1.285  47.496   0.006  0.00  0.00    +0.018 A 
ENDROOT
BRANCH   1   7
ATOM      7  C   LIG    1       -0.694  46.581   2.284  0.00  0.00    +0.342 C 
ATOM      8  O   LIG    1       -0.419  45.390   2.336  0.00  0.00    -0.245 OA
BRANCH   7  10
ATOM      9  C   LIG    1       -0.447  47.365   4.471  0.00  0.00    +0.280 C 
ATOM     10  O   LIG    1       -0.182  47.551   3.080  0.00  0.00    -0.464 OA
ENDBRANCH   7  10
ENDBRANCH   1   7
BRANCH   2  11
ATOM     11  O   LIG    1       -4.351  48.990  -1.259  0.00  0.00    -0.506 OA
ATOM     12  H   LIG    1       -4.516  49.812  -0.767  0.00  0.00    +0.292 HD
ENDBRANCH   2  11
TORSDOF 3
ENDMDL
MODEL 7
REMARK VINA RESULT:      -4.8     16.068     17.632
REMARK  Name = ZINC00000490
REMARK                            x       y       z     vdW  Elec       q    Type
REMARK                         _______ _______ _______ _____ _____    ______ ____
ROOT
ATOM      1  C   LIG    1       -3.152  47.708   1.837  0.00  0.00    +0.100 A 
ATOM      2  C   LIG    1       -4.290  46.890   1.808  0.00  0.00    +0.131 A 
ATOM      3  C   LIG    1       -4.654  46.148   2.935  0.00  0.00    +0.046 A 
ATOM      4  C   LIG    1       -3.872  46.226   4.084  0.00  0.00    +0.004 A 
ATOM      5  C   LIG    1       -2.751  47.047   4.133  0.00  0.00    +0.001 A 
ATOM      6  C   LIG    1       -2.389  47.793   3.009  0.00  0.00    +0.018 A 
ENDROOT
BRANCH   1   7
ATOM      7  C   LIG    1       -2.764  48.421   0.592  0.00  0.00    +0.342 C 
ATOM      8  O   LIG    1       -3.444  49.297   0.077  0.00  0.00    -0.245 OA
BRANCH   7  10
ATOM      9  C   LIG    1       -1.602  47.545  -1.235  0.00  0.00    +0.280 C 
ATOM     10  O   LIG    1       -1.575  47.961   0.131  0.00  0.00    -0.464 OA
ENDBRANCH   7  10
ENDBRANCH   1   7
BRANCH   2  11
ATOM     11  O   LIG    1       -4.167  45.493   5.195  0.00  0.00    -0.506 OA
ATOM     12  H   LIG    1       -4.531  44.651   4.874  0.00  0.00    +0.292 HD
ENDBRANCH   2  11
TORSDOF 3
ENDMDL
MODEL 8
REMARK VINA RESULT:      -4.8     15.763     17.422
REMARK  Name = ZINC00000490
REMARK                            x       y       z     vdW  Elec       q    Type
REMARK                         _______ _______ _______ _____ _____    ______ ____
ROOT
ATOM      1  C   LIG    1       -2.352  47.120   2.484  0.00  0.00    +0.100 A 
ATOM      2  C   LIG    1       -1.953  47.725   3.685  0.00  0.00    +0.131 A 
ATOM      3  C   LIG    1       -2.704  47.544   4.849  0.00  0.00    +0.046 A 
ATOM      4  C   LIG    1       -3.854  46.762   4.805  0.00  0.00    +0.004 A 
ATOM      5  C   LIG    1       -4.252  46.141   3.626  0.00  0.00    +0.001 A 
ATOM      6  C   LIG    1       -3.500  46.317   2.462  0.00  0.00    +0.018 A 
ENDROOT
BRANCH   1   7
ATOM      7  C   LIG    1       -1.563  47.400   1.257  0.00  0.00    +0.342 C 
ATOM      8  O   LIG    1       -0.387  47.091   1.126  0.00  0.00    -0.245 OA
BRANCH   7  10
ATOM      9  C   LIG    1       -1.940  47.778  -1.017  0.00  0.00    +0.280 C 
ATOM     10  O   LIG    1       -2.327  48.033   0.333  0.00  0.00    -0.464 OA
ENDBRANCH   7  10
ENDBRANCH   1   7
BRANCH   2  11
ATOM     11  O   LIG    1       -4.638  46.588   5.907  0.00  0.00    -0.506 OA
ATOM     12  H   LIG    1       -5.207  46.401   5.142  0.00  0.00    +0.292 HD
ENDBRANCH   2  11
TORSDOF 3
ENDMDL
MODEL 9
REMARK VINA RESULT:      -4.6     12.800     15.791
REMARK  Name = ZINC00000490
REMARK                            x       y       z     vdW  Elec       q    Type
REMARK                         _______ _______ _______ _____ _____    ______ ____
ROOT
ATOM      1  C   LIG    1        4.007  43.928   7.665  0.00  0.00    +0.100 A 
ATOM      2  C   LIG    1        2.724  44.103   7.128  0.00  0.00    +0.131 A 
ATOM      3  C   LIG    1        1.635  44.351   7.969  0.00  0.00    +0.046 A 
ATOM      4  C   LIG    1        1.837  44.418   9.344  0.00  0.00    +0.004 A 
ATOM      5  C   LIG    1        3.107  44.265   9.889  0.00  0.00    +0.001 A 
ATOM      6  C   LIG    1        4.197  44.022   9.051  0.00  0.00    +0.018 A 
ENDROOT
BRANCH   1   7
ATOM      7  C   LIG    1        5.120  43.595   6.739  0.00  0.00    +0.342 C 
ATOM      8  O   LIG    1        5.843  42.618   6.879  0.00  0.00    -0.245 OA
BRANCH   7  10
ATOM      9  C   LIG    1        6.165  45.545   5.992  0.00  0.00    +0.280 C 
ATOM     10  O   LIG    1        5.207  44.515   5.748  0.00  0.00    -0.464 OA
ENDBRANCH   7  10
ENDBRANCH   1   7
BRANCH   2  11
ATOM     11  O   LIG    1        0.799  44.622  10.205  0.00  0.00    -0.506 OA
ATOM     12  H   LIG    1        1.190  45.505  10.315  0.00  0.00    +0.292 HD
ENDBRANCH   2  11
TORSDOF 3
ENDMDL
