MODEL 1
REMARK VINA RESULT:      -5.3      0.000      0.000
REMARK  Name = ZINC00000053
REMARK                            x       y       z     vdW  Elec       q    Type
REMARK                         _______ _______ _______ _____ _____    ______ ____
ROOT
ATOM      1  C   LIG    1       -2.515  47.305   2.663  0.00  0.00    +0.140 A 
ATOM      2  C   LIG    1       -3.536  46.344   2.747  0.00  0.00    +0.040 A 
ATOM      3  C   LIG    1       -4.088  46.096   4.018  0.00  0.00    +0.013 A 
ATOM      4  C   LIG    1       -3.640  46.778   5.154  0.00  0.00    +0.001 A 
ATOM      5  C   LIG    1       -2.623  47.723   5.042  0.00  0.00    +0.004 A 
ATOM      6  C   LIG    1       -2.052  47.983   3.797  0.00  0.00    +0.047 A 
ENDROOT
BRANCH   2   7
ATOM      7  C   LIG    1       -4.058  45.573   1.548  0.00  0.00    +0.075 C 
ATOM      8  O   LIG    1       -3.416  44.539   1.174  0.00  0.00    -0.545 OA
ATOM      9  O   LIG    1       -5.099  46.034   0.982  0.00  0.00    -0.545 OA
ENDBRANCH   2   7
BRANCH   1  10
ATOM     10  O   LIG    1       -1.855  47.469   1.428  0.00  0.00    -0.425 OA
BRANCH  10  12
ATOM     11  C   LIG    1       -1.764  47.818  -0.884  0.00  0.00    +0.136 C 
ATOM     12  C   LIG    1       -2.362  48.274   0.415  0.00  0.00    +0.309 C 
ATOM     13  O   LIG    1       -3.143  49.211   0.525  0.00  0.00    -0.251 OA
ENDBRANCH  10  12
ENDBRANCH   1  10
TORSDOF 3
ENDMDL
MODEL 2
REMARK VINA RESULT:      -5.3      1.691      3.135
REMARK  Name = ZINC00000053
REMARK                            x       y       z     vdW  Elec       q    Type
REMARK                         _______ _______ _______ _____ _____    ______ ____
ROOT
ATOM      1  C   LIG    1       -2.510  46.607   2.797  0.00  0.00    +0.140 A 
ATOM      2  C   LIG    1       -1.201  46.906   2.387  0.00  0.00    +0.040 A 
ATOM      3  C   LIG    1       -0.329  47.448   3.350  0.00  0.00    +0.013 A 
ATOM      4  C   LIG    1       -0.746  47.679   4.665  0.00  0.00    +0.001 A 
ATOM      5  C   LIG    1       -2.052  47.376   5.043  0.00  0.00    +0.004 A 
ATOM      6  C   LIG    1       -2.940  46.847   4.108  0.00  0.00    +0.047 A 
ENDROOT
BRANCH   2   7
ATOM      7  C   LIG    1       -0.696  46.678   0.973  0.00  0.00    +0.075 C 
ATOM      8  O   LIG    1       -0.785  47.638   0.141  0.00  0.00    -0.545 OA
ATOM      9  O   LIG    1       -0.235  45.522   0.711  0.00  0.00    -0.545 OA
ENDBRANCH   2   7
BRANCH   1  10
ATOM     10  O   LIG    1       -3.437  46.194   1.818  0.00  0.00    -0.425 OA
BRANCH  10  12
ATOM     11  C   LIG    1       -4.383  48.022   0.706  0.00  0.00    +0.136 C 
ATOM     12  C   LIG    1       -4.642  46.852   1.609  0.00  0.00    +0.309 C 
ATOM     13  O   LIG    1       -5.739  46.571   2.078  0.00  0.00    -0.251 OA
ENDBRANCH  10  12
ENDBRANCH   1  10
TORSDOF 3
ENDMDL
MODEL 3
REMARK VINA RESULT:      -5.2      1.545      2.022
REMARK  Name = ZINC00000053
REMARK                            x       y       z     vdW  Elec       q    Type
REMARK                         _______ _______ _______ _____ _____    ______ ____
ROOT
ATOM      1  C   LIG    1       -1.616  46.737   2.195  0.00  0.00    +0.140 A 
ATOM      2  C   LIG    1       -2.834  47.026   2.832  0.00  0.00    +0.040 A 
ATOM      3  C   LIG    1       -2.775  47.511   4.152  0.00  0.00    +0.013 A 
ATOM      4  C   LIG    1       -1.554  47.699   4.807  0.00  0.00    +0.001 A 
ATOM      5  C   LIG    1       -0.361  47.400   4.153  0.00  0.00    +0.004 A 
ATOM      6  C   LIG    1       -0.390  46.910   2.848  0.00  0.00    +0.047 A 
ENDROOT
BRANCH   2   7
ATOM      7  C   LIG    1       -4.187  46.839   2.169  0.00  0.00    +0.075 C 
ATOM      8  O   LIG    1       -4.527  47.659   1.255  0.00  0.00    -0.545 OA
ATOM      9  O   LIG    1       -4.903  45.878   2.594  0.00  0.00    -0.545 OA
ENDBRANCH   2   7
BRANCH   1  10
ATOM     10  O   LIG    1       -1.657  46.122   0.927  0.00  0.00    -0.425 OA
BRANCH  10  12
ATOM     11  C   LIG    1       -1.470  45.855  -1.390  0.00  0.00    +0.136 C 
ATOM     12  C   LIG    1       -1.459  46.832  -0.250  0.00  0.00    +0.309 C 
ATOM     13  O   LIG    1       -1.282  48.038  -0.376  0.00  0.00    -0.251 OA
ENDBRANCH  10  12
ENDBRANCH   1  10
TORSDOF 3
ENDMDL
MODEL 4
REMARK VINA RESULT:      -5.2      1.888      4.373
REMARK  Name = ZINC00000053
REMARK                            x       y       z     vdW  Elec       q    Type
REMARK                         _______ _______ _______ _____ _____    ______ ____
ROOT
ATOM      1  C   LIG    1       -2.554  47.544   2.026  0.00  0.00    +0.140 A 
ATOM      2  C   LIG    1       -1.267  47.020   1.817  0.00  0.00    +0.040 A 
ATOM      3  C   LIG    1       -0.698  47.190   0.541  0.00  0.00    +0.013 A 
ATOM      4  C   LIG    1       -1.383  47.856  -0.481  0.00  0.00    +0.001 A 
ATOM      5  C   LIG    1       -2.660  48.362  -0.247  0.00  0.00    +0.004 A 
ATOM      6  C   LIG    1       -3.251  48.200   1.005  0.00  0.00    +0.047 A 
ENDROOT
BRANCH   2   7
ATOM      7  C   LIG    1       -0.480  46.288   2.890  0.00  0.00    +0.075 C 
ATOM      8  O   LIG    1       -0.421  45.017   2.829  0.00  0.00    -0.545 OA
ATOM      9  O   LIG    1        0.053  47.004   3.795  0.00  0.00    -0.545 OA
ENDBRANCH   2   7
BRANCH   1  10
ATOM     10  O   LIG    1       -3.196  47.265   3.250  0.00  0.00    -0.425 OA
BRANCH  10  12
ATOM     11  C   LIG    1       -3.671  45.352   4.509  0.00  0.00    +0.136 C 
ATOM     12  C   LIG    1       -4.123  46.241   3.387  0.00  0.00    +0.309 C 
ATOM     13  O   LIG    1       -5.131  46.049   2.718  0.00  0.00    -0.251 OA
ENDBRANCH  10  12
ENDBRANCH   1  10
TORSDOF 3
ENDMDL
MODEL 5
REMARK VINA RESULT:      -4.9      1.869      2.554
REMARK  Name = ZINC00000053
REMARK                            x       y       z     vdW  Elec       q    Type
REMARK                         _______ _______ _______ _____ _____    ______ ____
ROOT
ATOM      1  C   LIG    1       -1.966  46.990   2.111  0.00  0.00    +0.140 A 
ATOM      2  C   LIG    1       -0.977  46.005   2.266  0.00  0.00    +0.040 A 
ATOM      3  C   LIG    1       -0.183  46.061   3.427  0.00  0.00    +0.013 A 
ATOM      4  C   LIG    1       -0.371  47.057   4.392  0.00  0.00    +0.001 A 
ATOM      5  C   LIG    1       -1.357  48.023   4.211  0.00  0.00    +0.004 A 
ATOM      6  C   LIG    1       -2.152  47.998   3.066  0.00  0.00    +0.047 A 
ENDROOT
BRANCH   2   7
ATOM      7  C   LIG    1       -0.730  44.904   1.250  0.00  0.00    +0.075 C 
ATOM      8  O   LIG    1       -1.496  43.887   1.269  0.00  0.00    -0.545 OA
ATOM      9  O   LIG    1        0.251  45.068   0.457  0.00  0.00    -0.545 OA
ENDBRANCH   2   7
BRANCH   1  10
ATOM     10  O   LIG    1       -2.678  47.034   0.895  0.00  0.00    -0.425 OA
BRANCH  10  12
ATOM     11  C   LIG    1       -1.495  47.771  -0.984  0.00  0.00    +0.136 C 
ATOM     12  C   LIG    1       -2.572  48.098   0.009  0.00  0.00    +0.309 C 
ATOM     13  O   LIG    1       -3.210  49.144   0.016  0.00  0.00    -0.251 OA
ENDBRANCH  10  12
ENDBRANCH   1  10
TORSDOF 3
ENDMDL
MODEL 6
REMARK VINA RESULT:      -4.8      1.754      4.141
REMARK  Name = ZINC00000053
REMARK                            x       y       z     vdW  Elec       q    Type
REMARK                         _______ _______ _______ _____ _____    ______ ____
ROOT
ATOM      1  C   LIG    1       -2.365  47.659   1.262  0.00  0.00    +0.140 A 
ATOM      2  C   LIG    1       -2.058  46.681   0.302  0.00  0.00    +0.040 A 
ATOM      3  C   LIG    1       -2.517  46.896  -1.012  0.00  0.00    +0.013 A 
ATOM      4  C   LIG    1       -3.248  48.039  -1.351  0.00  0.00    +0.001 A 
ATOM      5  C   LIG    1       -3.541  48.991  -0.378  0.00  0.00    +0.004 A 
ATOM      6  C   LIG    1       -3.108  48.800   0.933  0.00  0.00    +0.047 A 
ENDROOT
BRANCH   2   7
ATOM      7  C   LIG    1       -1.270  45.422   0.616  0.00  0.00    +0.075 C 
ATOM      8  O   LIG    1       -0.011  45.439   0.426  0.00  0.00    -0.545 OA
ATOM      9  O   LIG    1       -1.935  44.421   1.032  0.00  0.00    -0.545 OA
ENDBRANCH   2   7
BRANCH   1  10
ATOM     10  O   LIG    1       -2.036  47.399   2.608  0.00  0.00    -0.425 OA
BRANCH  10  12
ATOM     11  C   LIG    1       -2.595  47.691   4.860  0.00  0.00    +0.136 C 
ATOM     12  C   LIG    1       -2.993  47.064   3.556  0.00  0.00    +0.309 C 
ATOM     13  O   LIG    1       -3.988  46.365   3.401  0.00  0.00    -0.251 OA
ENDBRANCH  10  12
ENDBRANCH   1  10
TORSDOF 3
ENDMDL
MODEL 7
REMARK VINA RESULT:      -4.8      1.599      3.790
REMARK  Name = ZINC00000053
REMARK                            x       y       z     vdW  Elec       q    Type
REMARK                         _______ _______ _______ _____ _____    ______ ____
ROOT
ATOM      1  C   LIG    1       -2.376  46.700   1.393  0.00  0.00    +0.140 A 
ATOM      2  C   LIG    1       -3.549  46.639   0.624  0.00  0.00    +0.040 A 
ATOM      3  C   LIG    1       -3.494  47.156  -0.684  0.00  0.00    +0.013 A 
ATOM      4  C   LIG    1       -2.317  47.708  -1.201  0.00  0.00    +0.001 A 
ATOM      5  C   LIG    1       -1.169  47.759  -0.414  0.00  0.00    +0.004 A 
ATOM      6  C   LIG    1       -1.198  47.263   0.888  0.00  0.00    +0.047 A 
ENDROOT
BRANCH   2   7
ATOM      7  C   LIG    1       -4.853  46.052   1.136  0.00  0.00    +0.075 C 
ATOM      8  O   LIG    1       -5.209  44.909   0.700  0.00  0.00    -0.545 OA
ATOM      9  O   LIG    1       -5.516  46.763   1.956  0.00  0.00    -0.545 OA
ENDBRANCH   2   7
BRANCH   1  10
ATOM     10  O   LIG    1       -2.446  46.315   2.748  0.00  0.00    -0.425 OA
BRANCH  10  12
ATOM     11  C   LIG    1       -3.426  46.629   4.849  0.00  0.00    +0.136 C 
ATOM     12  C   LIG    1       -2.568  47.237   3.778  0.00  0.00    +0.309 C 
ATOM     13  O   LIG    1       -2.092  48.365   3.833  0.00  0.00    -0.251 OA
ENDBRANCH  10  12
ENDBRANCH   1  10
TORSDOF 3
ENDMDL
MODEL 8
REMARK VINA RESULT:      -4.8      2.265      3.521
REMARK  Name = ZINC00000053
REMARK                            x       y       z     vdW  Elec       q    Type
REMARK                         _______ _______ _______ _____ _____    ______ ____
ROOT
ATOM      1  C   LIG    1       -1.756  47.169  -0.035  0.00  0.00    +0.140 A 
ATOM      2  C   LIG    1       -2.850  47.726   0.647  0.00  0.00    +0.040 A 
ATOM      3  C   LIG    1       -2.747  47.846   2.046  0.00  0.00    +0.013 A 
ATOM      4  C   LIG    1       -1.603  47.428   2.733  0.00  0.00    +0.001 A 
ATOM      5  C   LIG    1       -0.534  46.876   2.031  0.00  0.00    +0.004 A 
ATOM      6  C   LIG    1       -0.611  46.737   0.646  0.00  0.00    +0.047 A 
ENDROOT
BRANCH   2   7
ATOM      7  C   LIG    1       -4.117  48.193  -0.047  0.00  0.00    +0.075 C 
ATOM      8  O   LIG    1       -5.088  47.375  -0.137  0.00  0.00    -0.545 OA
ATOM      9  O   LIG    1       -4.108  49.376  -0.514  0.00  0.00    -0.545 OA
ENDBRANCH   2   7
BRANCH   1  10
ATOM     10  O   LIG    1       -1.891  46.914  -1.415  0.00  0.00    -0.425 OA
BRANCH  10  12
ATOM     11  C   LIG    1       -3.101  44.932  -1.701  0.00  0.00    +0.136 C 
ATOM     12  C   LIG    1       -1.798  45.635  -1.948  0.00  0.00    +0.309 C 
ATOM     13  O   LIG    1       -0.834  45.127  -2.509  0.00  0.00    -0.251 OA
ENDBRANCH  10  12
ENDBRANCH   1  10
TORSDOF 3
ENDMDL
MODEL 9
REMARK VINA RESULT:      -4.7      1.947      4.297
REMARK  Name = ZINC00000053
REMARK                            x       y       z     vdW  Elec       q    Type
REMARK                         _______ _______ _______ _____ _____    ______ ____
ROOT
ATOM      1  C   LIG    1       -1.963  46.969   1.280  0.00  0.00    +0.140 A 
ATOM      2  C   LIG    1       -1.582  45.678   0.879  0.00  0.00    +0.040 A 
ATOM      3  C   LIG    1       -1.335  45.472  -0.491  0.00  0.00    +0.013 A 
ATOM      4  C   LIG    1       -1.463  46.510  -1.420  0.00  0.00    +0.001 A 
ATOM      5  C   LIG    1       -1.847  47.780  -0.995  0.00  0.00    +0.004 A 
ATOM      6  C   LIG    1       -2.106  48.010   0.355  0.00  0.00    +0.047 A 
ENDROOT
BRANCH   2   7
ATOM      7  C   LIG    1       -1.429  44.515   1.844  0.00  0.00    +0.075 C 
ATOM      8  O   LIG    1       -2.421  43.731   2.000  0.00  0.00    -0.545 OA
ATOM      9  O   LIG    1       -0.316  44.419   2.451  0.00  0.00    -0.545 OA
ENDBRANCH   2   7
BRANCH   1  10
ATOM     10  O   LIG    1       -2.348  47.164   2.622  0.00  0.00    -0.425 OA
BRANCH  10  12
ATOM     11  C   LIG    1       -2.198  47.700   4.895  0.00  0.00    +0.136 C 
ATOM     12  C   LIG    1       -1.440  47.515   3.613  0.00  0.00    +0.309 C 
ATOM     13  O   LIG    1       -0.231  47.676   3.496  0.00  0.00    -0.251 OA
ENDBRANCH  10  12
ENDBRANCH   1  10
TORSDOF 3
ENDMDL
