MODEL 1
REMARK VINA RESULT:      -6.5      0.000      0.000
REMARK  Name = ZINC00000384
REMARK                            x       y       z     vdW  Elec       q    Type
REMARK                         _______ _______ _______ _____ _____    ______ ____
ROOT
ATOM      1  C   LIG    1       -2.500  47.409   0.490  0.00  0.00    +0.202 C 
ATOM      2  N   LIG    1       -3.661  46.547   0.445  0.00  0.00    -0.215 N 
ATOM      3  C   LIG    1       -3.887  45.125   0.379  0.00  0.00    +0.223 C 
ATOM      4  C   LIG    1       -5.339  45.028  -0.177  0.00  0.00    +0.219 C 
ATOM      5  N   LIG    1       -5.733  46.420  -0.487  0.00  0.00    -0.238 N 
ATOM      6  H   LIG    1       -6.568  46.748  -0.955  0.00  0.00    +0.244 HD
ATOM      7  C   LIG    1       -4.695  47.205  -0.142  0.00  0.00    +0.332 C 
ATOM      8  N   LIG    1       -4.479  48.512  -0.378  0.00  0.00    -0.278 N 
ATOM      9  H   LIG    1       -5.142  49.132  -0.825  0.00  0.00    +0.258 HD
ATOM     10  C   LIG    1       -3.076  48.791   0.014  0.00  0.00    +0.238 C 
ENDROOT
BRANCH   1  14
ATOM     11  C   LIG    1       -0.918  47.507   4.503  0.00  0.00    +0.000 A 
ATOM     12  C   LIG    1       -2.203  47.974   4.239  0.00  0.00    +0.000 A 
ATOM     13  C   LIG    1       -2.705  47.945   2.937  0.00  0.00    +0.007 A 
ATOM     14  C   LIG    1       -1.925  47.450   1.880  0.00  0.00    -0.010 A 
ATOM     15  C   LIG    1       -0.633  46.978   2.163  0.00  0.00    +0.007 A 
ATOM     16  C   LIG    1       -0.133  47.010   3.466  0.00  0.00    +0.000 A 
ENDBRANCH   1  14
TORSDOF 1
ENDMDL
MODEL 2
REMARK VINA RESULT:      -6.4      0.550      1.355
REMARK  Name = ZINC00000384
REMARK                            x       y       z     vdW  Elec       q    Type
REMARK                         _______ _______ _______ _____ _____    ______ ____
ROOT
ATOM      1  C   LIG    1       -2.567  47.446   0.978  0.00  0.00    +0.202 C 
ATOM      2  N   LIG    1       -3.703  46.575   0.764  0.00  0.00    -0.215 N 
ATOM      3  C   LIG    1       -3.896  45.158   0.585  0.00  0.00    +0.223 C 
ATOM      4  C   LIG    1       -5.285  45.081  -0.115  0.00  0.00    +0.219 C 
ATOM      5  N   LIG    1       -5.673  46.485  -0.371  0.00  0.00    -0.238 N 
ATOM      6  H   LIG    1       -6.465  46.833  -0.896  0.00  0.00    +0.244 HD
ATOM      7  C   LIG    1       -4.687  47.258   0.123  0.00  0.00    +0.332 C 
ATOM      8  N   LIG    1       -4.474  48.580  -0.006  0.00  0.00    -0.278 N 
ATOM      9  H   LIG    1       -5.101  49.221  -0.475  0.00  0.00    +0.258 HD
ATOM     10  C   LIG    1       -3.120  48.849   0.538  0.00  0.00    +0.238 C 
ENDROOT
BRANCH   1  14
ATOM     11  C   LIG    1       -1.259  47.369   5.089  0.00  0.00    +0.000 A 
ATOM     12  C   LIG    1       -0.329  47.361   4.052  0.00  0.00    +0.000 A 
ATOM     13  C   LIG    1       -0.761  47.379   2.724  0.00  0.00    +0.007 A 
ATOM     14  C   LIG    1       -2.130  47.403   2.417  0.00  0.00    -0.010 A 
ATOM     15  C   LIG    1       -3.055  47.416   3.474  0.00  0.00    +0.007 A 
ATOM     16  C   LIG    1       -2.621  47.396   4.801  0.00  0.00    +0.000 A 
ENDBRANCH   1  14
TORSDOF 1
ENDMDL
MODEL 3
REMARK VINA RESULT:      -6.3      1.614      1.937
REMARK  Name = ZINC00000384
REMARK                            x       y       z     vdW  Elec       q    Type
REMARK                         _______ _______ _______ _____ _____    ______ ____
ROOT
ATOM      1  C   LIG    1       -2.732  48.055   0.964  0.00  0.00    +0.202 C 
ATOM      2  N   LIG    1       -2.914  46.936   0.064  0.00  0.00    -0.215 N 
ATOM      3  C   LIG    1       -2.112  45.817  -0.363  0.00  0.00    +0.223 C 
ATOM      4  C   LIG    1       -2.781  45.401  -1.707  0.00  0.00    +0.219 C 
ATOM      5  N   LIG    1       -3.823  46.421  -1.957  0.00  0.00    -0.238 N 
ATOM      6  H   LIG    1       -4.400  46.542  -2.779  0.00  0.00    +0.244 HD
ATOM      7  C   LIG    1       -3.788  47.277  -0.917  0.00  0.00    +0.332 C 
ATOM      8  N   LIG    1       -4.406  48.460  -0.747  0.00  0.00    -0.278 N 
ATOM      9  H   LIG    1       -5.068  48.862  -1.397  0.00  0.00    +0.258 HD
ATOM     10  C   LIG    1       -3.822  49.074   0.471  0.00  0.00    +0.238 C 
ENDROOT
BRANCH   1  14
ATOM     11  C   LIG    1       -3.291  46.745   5.037  0.00  0.00    +0.000 A 
ATOM     12  C   LIG    1       -4.085  46.232   4.015  0.00  0.00    +0.000 A 
ATOM     13  C   LIG    1       -3.902  46.666   2.700  0.00  0.00    +0.007 A 
ATOM     14  C   LIG    1       -2.923  47.623   2.392  0.00  0.00    -0.010 A 
ATOM     15  C   LIG    1       -2.127  48.128   3.433  0.00  0.00    +0.007 A 
ATOM     16  C   LIG    1       -2.313  47.693   4.747  0.00  0.00    +0.000 A 
ENDBRANCH   1  14
TORSDOF 1
ENDMDL
MODEL 4
REMARK VINA RESULT:      -6.1      1.267      2.632
REMARK  Name = ZINC00000384
REMARK                            x       y       z     vdW  Elec       q    Type
REMARK                         _______ _______ _______ _____ _____    ______ ____
ROOT
ATOM      1  C   LIG    1       -3.851  46.918   2.193  0.00  0.00    +0.202 C 
ATOM      2  N   LIG    1       -3.640  47.661   0.969  0.00  0.00    -0.215 N 
ATOM      3  C   LIG    1       -3.758  49.040   0.569  0.00  0.00    +0.223 C 
ATOM      4  C   LIG    1       -3.892  48.943  -0.980  0.00  0.00    +0.219 C 
ATOM      5  N   LIG    1       -3.961  47.495  -1.277  0.00  0.00    -0.238 N 
ATOM      6  H   LIG    1       -4.148  47.043  -2.162  0.00  0.00    +0.244 HD
ATOM      7  C   LIG    1       -3.857  46.851  -0.099  0.00  0.00    +0.332 C 
ATOM      8  N   LIG    1       -4.034  45.550   0.197  0.00  0.00    -0.278 N 
ATOM      9  H   LIG    1       -4.225  44.826  -0.484  0.00  0.00    +0.258 HD
ATOM     10  C   LIG    1       -4.029  45.445   1.676  0.00  0.00    +0.238 C 
ENDROOT
BRANCH   1  14
ATOM     11  C   LIG    1       -0.454  47.435   4.804  0.00  0.00    +0.000 A 
ATOM     12  C   LIG    1       -0.269  47.159   3.451  0.00  0.00    +0.000 A 
ATOM     13  C   LIG    1       -1.374  46.987   2.615  0.00  0.00    +0.007 A 
ATOM     14  C   LIG    1       -2.679  47.085   3.122  0.00  0.00    -0.010 A 
ATOM     15  C   LIG    1       -2.848  47.368   4.488  0.00  0.00    +0.007 A 
ATOM     16  C   LIG    1       -1.742  47.539   5.322  0.00  0.00    +0.000 A 
ENDBRANCH   1  14
TORSDOF 1
ENDMDL
MODEL 5
REMARK VINA RESULT:      -5.9      2.672      4.216
REMARK  Name = ZINC00000384
REMARK                            x       y       z     vdW  Elec       q    Type
REMARK                         _______ _______ _______ _____ _____    ______ ____
ROOT
ATOM      1  C   LIG    1       -4.153  45.527   1.381  0.00  0.00    +0.202 C 
ATOM      2  N   LIG    1       -3.460  45.292   2.630  0.00  0.00    -0.215 N 
ATOM      3  C   LIG    1       -2.504  44.329   3.112  0.00  0.00    +0.223 C 
ATOM      4  C   LIG    1       -2.670  44.415   4.658  0.00  0.00    +0.219 C 
ATOM      5  N   LIG    1       -3.805  45.339   4.878  0.00  0.00    -0.238 N 
ATOM      6  H   LIG    1       -4.271  45.566   5.747  0.00  0.00    +0.244 HD
ATOM      7  C   LIG    1       -4.216  45.747   3.663  0.00  0.00    +0.332 C 
ATOM      8  N   LIG    1       -5.309  46.447   3.307  0.00  0.00    -0.278 N 
ATOM      9  H   LIG    1       -5.981  46.834   3.956  0.00  0.00    +0.258 HD
ATOM     10  C   LIG    1       -5.379  46.403   1.825  0.00  0.00    +0.238 C 
ENDROOT
BRANCH   1  14
ATOM     11  C   LIG    1       -1.527  47.548  -1.383  0.00  0.00    +0.000 A 
ATOM     12  C   LIG    1       -1.972  48.193  -0.231  0.00  0.00    +0.000 A 
ATOM     13  C   LIG    1       -2.827  47.534   0.655  0.00  0.00    +0.007 A 
ATOM     14  C   LIG    1       -3.251  46.221   0.397  0.00  0.00    -0.010 A 
ATOM     15  C   LIG    1       -2.789  45.583  -0.766  0.00  0.00    +0.007 A 
ATOM     16  C   LIG    1       -1.936  46.244  -1.650  0.00  0.00    +0.000 A 
ENDBRANCH   1  14
TORSDOF 1
ENDMDL
MODEL 6
REMARK VINA RESULT:      -5.9      2.472      4.797
REMARK  Name = ZINC00000384
REMARK                            x       y       z     vdW  Elec       q    Type
REMARK                         _______ _______ _______ _____ _____    ______ ____
ROOT
ATOM      1  C   LIG    1       -2.953  46.156   2.306  0.00  0.00    +0.202 C 
ATOM      2  N   LIG    1       -2.085  46.864   3.222  0.00  0.00    -0.215 N 
ATOM      3  C   LIG    1       -0.661  46.983   3.408  0.00  0.00    +0.223 C 
ATOM      4  C   LIG    1       -0.540  47.457   4.887  0.00  0.00    +0.219 C 
ATOM      5  N   LIG    1       -1.921  47.434   5.418  0.00  0.00    -0.238 N 
ATOM      6  H   LIG    1       -2.231  47.583   6.370  0.00  0.00    +0.244 HD
ATOM      7  C   LIG    1       -2.721  47.038   4.410  0.00  0.00    +0.332 C 
ATOM      8  N   LIG    1       -4.021  46.693   4.418  0.00  0.00    -0.278 N 
ATOM      9  H   LIG    1       -4.625  46.745   5.228  0.00  0.00    +0.258 HD
ATOM     10  C   LIG    1       -4.318  46.117   3.084  0.00  0.00    +0.238 C 
ENDROOT
BRANCH   1  14
ATOM     11  C   LIG    1       -3.214  48.299  -1.430  0.00  0.00    +0.000 A 
ATOM     12  C   LIG    1       -4.107  48.571  -0.397  0.00  0.00    +0.000 A 
ATOM     13  C   LIG    1       -4.020  47.868   0.807  0.00  0.00    +0.007 A 
ATOM     14  C   LIG    1       -3.039  46.881   0.990  0.00  0.00    -0.010 A 
ATOM     15  C   LIG    1       -2.142  46.623  -0.060  0.00  0.00    +0.007 A 
ATOM     16  C   LIG    1       -2.232  47.326  -1.262  0.00  0.00    +0.000 A 
ENDBRANCH   1  14
TORSDOF 1
ENDMDL
MODEL 7
REMARK VINA RESULT:      -5.8      2.736      4.884
REMARK  Name = ZINC00000384
REMARK                            x       y       z     vdW  Elec       q    Type
REMARK                         _______ _______ _______ _____ _____    ______ ____
ROOT
ATOM      1  C   LIG    1       -2.049  46.910   2.795  0.00  0.00    +0.202 C 
ATOM      2  N   LIG    1       -0.949  45.971   2.848  0.00  0.00    -0.215 N 
ATOM      3  C   LIG    1       -0.791  44.556   2.623  0.00  0.00    +0.223 C 
ATOM      4  C   LIG    1        0.522  44.225   3.393  0.00  0.00    +0.219 C 
ATOM      5  N   LIG    1        0.899  45.480   4.080  0.00  0.00    -0.238 N 
ATOM      6  H   LIG    1        1.640  45.629   4.753  0.00  0.00    +0.244 HD
ATOM      7  C   LIG    1       -0.025  46.400   3.746  0.00  0.00    +0.332 C 
ATOM      8  N   LIG    1       -0.234  47.636   4.234  0.00  0.00    -0.278 N 
ATOM      9  H   LIG    1        0.351  48.089   4.924  0.00  0.00    +0.258 HD
ATOM     10  C   LIG    1       -1.525  48.104   3.672  0.00  0.00    +0.238 C 
ENDROOT
BRANCH   1  14
ATOM     11  C   LIG    1       -2.943  48.083  -1.259  0.00  0.00    +0.000 A 
ATOM     12  C   LIG    1       -3.959  47.986  -0.312  0.00  0.00    +0.000 A 
ATOM     13  C   LIG    1       -3.662  47.599   0.996  0.00  0.00    +0.007 A 
ATOM     14  C   LIG    1       -2.344  47.301   1.373  0.00  0.00    -0.010 A 
ATOM     15  C   LIG    1       -1.329  47.409   0.407  0.00  0.00    +0.007 A 
ATOM     16  C   LIG    1       -1.629  47.794  -0.901  0.00  0.00    +0.000 A 
ENDBRANCH   1  14
TORSDOF 1
ENDMDL
MODEL 8
REMARK VINA RESULT:      -5.7      2.595      4.221
REMARK  Name = ZINC00000384
REMARK                            x       y       z     vdW  Elec       q    Type
REMARK                         _______ _______ _______ _____ _____    ______ ____
ROOT
ATOM      1  C   LIG    1       -2.149  47.166   0.728  0.00  0.00    +0.202 C 
ATOM      2  N   LIG    1       -3.397  46.673   1.271  0.00  0.00    -0.215 N 
ATOM      3  C   LIG    1       -4.773  46.659   0.843  0.00  0.00    +0.223 C 
ATOM      4  C   LIG    1       -5.551  46.456   2.177  0.00  0.00    +0.219 C 
ATOM      5  N   LIG    1       -4.524  46.504   3.240  0.00  0.00    -0.238 N 
ATOM      6  H   LIG    1       -4.657  46.509   4.243  0.00  0.00    +0.244 HD
ATOM      7  C   LIG    1       -3.337  46.678   2.628  0.00  0.00    +0.332 C 
ATOM      8  N   LIG    1       -2.126  46.954   3.146  0.00  0.00    -0.278 N 
ATOM      9  H   LIG    1       -1.924  47.015   4.135  0.00  0.00    +0.258 HD
ATOM     10  C   LIG    1       -1.237  47.273   2.002  0.00  0.00    +0.238 C 
ENDROOT
BRANCH   1  14
ATOM     11  C   LIG    1       -0.621  44.393  -2.203  0.00  0.00    +0.000 A 
ATOM     12  C   LIG    1       -0.284  44.256  -0.859  0.00  0.00    +0.000 A 
ATOM     13  C   LIG    1       -0.778  45.162   0.082  0.00  0.00    +0.007 A 
ATOM     14  C   LIG    1       -1.613  46.219  -0.311  0.00  0.00    -0.010 A 
ATOM     15  C   LIG    1       -1.948  46.340  -1.670  0.00  0.00    +0.007 A 
ATOM     16  C   LIG    1       -1.452  45.434  -2.609  0.00  0.00    +0.000 A 
ENDBRANCH   1  14
TORSDOF 1
ENDMDL
MODEL 9
REMARK VINA RESULT:      -5.7      9.056      9.926
REMARK  Name = ZINC00000384
REMARK                            x       y       z     vdW  Elec       q    Type
REMARK                         _______ _______ _______ _____ _____    ______ ____
ROOT
ATOM      1  C   LIG    1        5.303  44.216   6.891  0.00  0.00    +0.202 C 
ATOM      2  N   LIG    1        4.975  43.868   5.525  0.00  0.00    -0.215 N 
ATOM      3  C   LIG    1        4.704  42.646   4.810  0.00  0.00    +0.223 C 
ATOM      4  C   LIG    1        4.980  43.039   3.329  0.00  0.00    +0.219 C 
ATOM      5  N   LIG    1        5.504  44.422   3.383  0.00  0.00    -0.238 N 
ATOM      6  H   LIG    1        5.887  44.979   2.630  0.00  0.00    +0.244 HD
ATOM      7  C   LIG    1        5.507  44.787   4.679  0.00  0.00    +0.332 C 
ATOM      8  N   LIG    1        6.044  45.868   5.274  0.00  0.00    -0.278 N 
ATOM      9  H   LIG    1        6.495  46.630   4.785  0.00  0.00    +0.258 HD
ATOM     10  C   LIG    1        5.955  45.637   6.737  0.00  0.00    +0.238 C 
ENDROOT
BRANCH   1  14
ATOM     11  C   LIG    1        1.791  44.270   9.397  0.00  0.00    +0.000 A 
ATOM     12  C   LIG    1        3.063  44.237   9.964  0.00  0.00    +0.000 A 
ATOM     13  C   LIG    1        4.194  44.212   9.146  0.00  0.00    +0.007 A 
ATOM     14  C   LIG    1        4.066  44.219   7.748  0.00  0.00    -0.010 A 
ATOM     15  C   LIG    1        2.777  44.258   7.191  0.00  0.00    +0.007 A 
ATOM     16  C   LIG    1        1.648  44.280   8.012  0.00  0.00    +0.000 A 
ENDBRANCH   1  14
TORSDOF 1
ENDMDL
