MODEL 1
REMARK VINA RESULT:      -5.8      0.000      0.000
REMARK  Name = ZINC00000725
REMARK                            x       y       z     vdW  Elec       q    Type
REMARK                         _______ _______ _______ _____ _____    ______ ____
ROOT
ATOM      1  C   LIG    1       -4.212  46.735   2.450  0.00  0.00    +0.182 C 
ENDROOT
BRANCH   1   5
ATOM      2  C   LIG    1       -0.450  47.467   4.465  0.00  0.00    +0.000 A 
ATOM      3  C   LIG    1       -1.642  47.553   5.178  0.00  0.00    +0.000 A 
ATOM      4  C   LIG    1       -2.859  47.308   4.536  0.00  0.00    +0.006 A 
ATOM      5  C   LIG    1       -2.898  46.991   3.168  0.00  0.00    -0.016 A 
ATOM      6  C   LIG    1       -1.687  46.896   2.467  0.00  0.00    +0.006 A 
ATOM      7  C   LIG    1       -0.471  47.134   3.112  0.00  0.00    +0.000 A 
ENDBRANCH   1   5
BRANCH   1   8
ATOM      8  O   LIG    1       -4.786  45.511   2.926  0.00  0.00    -0.384 OA
ATOM      9  H   LIG    1       -4.231  44.792   2.577  0.00  0.00    +0.210 HD
ENDBRANCH   1   8
BRANCH   1  10
ATOM     10  C   LIG    1       -4.023  46.674   0.925  0.00  0.00    +0.269 C 
BRANCH  10  11
ATOM     11  O   LIG    1       -4.678  47.764   0.243  0.00  0.00    -0.448 OA
BRANCH  11  12
ATOM     12  C   LIG    1       -3.904  48.831  -0.031  0.00  0.00    +0.398 C 
ATOM     13  N   LIG    1       -4.668  49.939  -0.135  0.00  0.00    -0.295 N 
ATOM     14  H   LIG    1       -4.246  50.784  -0.487  0.00  0.00    +0.148 HD
ATOM     15  H   LIG    1       -5.672  49.834  -0.134  0.00  0.00    +0.148 HD
ATOM     16  O   LIG    1       -2.695  48.822  -0.214  0.00  0.00    -0.227 OA
ENDBRANCH  11  12
ENDBRANCH  10  11
ENDBRANCH   1  10
TORSDOF 5
ENDMDL
MODEL 2
REMARK VINA RESULT:      -5.7     16.288     17.094
REMARK  Name = ZINC00000725
REMARK                            x       y       z     vdW  Elec       q    Type
REMARK                         _______ _______ _______ _____ _____    ______ ____
ROOT
ATOM      1  C   LIG    1       12.351  44.020  -5.311  0.00  0.00    +0.182 C 
ENDROOT
BRANCH   1   5
ATOM      2  C   LIG    1       11.096  41.737  -1.852  0.00  0.00    +0.000 A 
ATOM      3  C   LIG    1       10.621  41.394  -3.115  0.00  0.00    +0.000 A 
ATOM      4  C   LIG    1       11.030  42.120  -4.236  0.00  0.00    +0.006 A 
ATOM      5  C   LIG    1       11.907  43.210  -4.106  0.00  0.00    -0.016 A 
ATOM      6  C   LIG    1       12.386  43.535  -2.829  0.00  0.00    +0.006 A 
ATOM      7  C   LIG    1       11.982  42.802  -1.709  0.00  0.00    +0.000 A 
ENDBRANCH   1   5
BRANCH   1   8
ATOM      8  O   LIG    1       12.576  45.379  -4.917  0.00  0.00    -0.384 OA
ATOM      9  H   LIG    1       11.714  45.828  -4.971  0.00  0.00    +0.210 HD
ENDBRANCH   1   8
BRANCH   1  10
ATOM     10  C   LIG    1       11.317  43.961  -6.447  0.00  0.00    +0.269 C 
BRANCH  10  11
ATOM     11  O   LIG    1       11.831  43.315  -7.631  0.00  0.00    -0.448 OA
BRANCH  11  12
ATOM     12  C   LIG    1       10.944  43.127  -8.626  0.00  0.00    +0.398 C 
ATOM     13  N   LIG    1        9.711  43.497  -8.218  0.00  0.00    -0.295 N 
ATOM     14  H   LIG    1        8.922  43.270  -8.803  0.00  0.00    +0.148 HD
ATOM     15  H   LIG    1        9.573  43.726  -7.246  0.00  0.00    +0.148 HD
ATOM     16  O   LIG    1       11.179  42.648  -9.726  0.00  0.00    -0.227 OA
ENDBRANCH  11  12
ENDBRANCH  10  11
ENDBRANCH   1  10
TORSDOF 5
ENDMDL
MODEL 3
REMARK VINA RESULT:      -5.4      2.929      4.869
REMARK  Name = ZINC00000725
REMARK                            x       y       z     vdW  Elec       q    Type
REMARK                         _______ _______ _______ _____ _____    ______ ____
ROOT
ATOM      1  C   LIG    1       -1.310  47.053   2.686  0.00  0.00    +0.182 C 
ENDROOT
BRANCH   1   5
ATOM      2  C   LIG    1       -2.873  48.112  -1.211  0.00  0.00    +0.000 A 
ATOM      3  C   LIG    1       -1.557  47.673  -1.091  0.00  0.00    +0.000 A 
ATOM      4  C   LIG    1       -1.050  47.320   0.161  0.00  0.00    +0.006 A 
ATOM      5  C   LIG    1       -1.848  47.418   1.314  0.00  0.00    -0.016 A 
ATOM      6  C   LIG    1       -3.175  47.851   1.174  0.00  0.00    +0.006 A 
ATOM      7  C   LIG    1       -3.683  48.195  -0.081  0.00  0.00    +0.000 A 
ENDBRANCH   1   5
BRANCH   1   8
ATOM      8  O   LIG    1       -0.830  45.702   2.667  0.00  0.00    -0.384 OA
ATOM      9  H   LIG    1       -0.576  45.512   1.747  0.00  0.00    +0.210 HD
ENDBRANCH   1   8
BRANCH   1  10
ATOM     10  C   LIG    1       -2.378  47.220   3.778  0.00  0.00    +0.269 C 
BRANCH  10  11
ATOM     11  O   LIG    1       -2.656  45.987   4.474  0.00  0.00    -0.448 OA
BRANCH  11  12
ATOM     12  C   LIG    1       -3.916  45.524   4.362  0.00  0.00    +0.398 C 
ATOM     13  N   LIG    1       -4.043  44.367   5.044  0.00  0.00    -0.295 N 
ATOM     14  H   LIG    1       -4.886  43.827   4.924  0.00  0.00    +0.148 HD
ATOM     15  H   LIG    1       -3.212  43.934   5.420  0.00  0.00    +0.148 HD
ATOM     16  O   LIG    1       -4.818  46.027   3.707  0.00  0.00    -0.227 OA
ENDBRANCH  11  12
ENDBRANCH  10  11
ENDBRANCH   1  10
TORSDOF 5
ENDMDL
MODEL 4
REMARK VINA RESULT:      -5.2      2.205      2.385
REMARK  Name = ZINC00000725
REMARK                            x       y       z     vdW  Elec       q    Type
REMARK                         _______ _______ _______ _____ _____    ______ ____
ROOT
ATOM      1  C   LIG    1       -4.378  46.521   3.322  0.00  0.00    +0.182 C 
ENDROOT
BRANCH   1   5
ATOM      2  C   LIG    1       -0.272  47.393   4.383  0.00  0.00    +0.000 A 
ATOM      3  C   LIG    1       -1.276  47.534   5.337  0.00  0.00    +0.000 A 
ATOM      4  C   LIG    1       -2.601  47.245   5.004  0.00  0.00    +0.006 A 
ATOM      5  C   LIG    1       -2.941  46.827   3.706  0.00  0.00    -0.016 A 
ATOM      6  C   LIG    1       -1.916  46.678   2.761  0.00  0.00    +0.006 A 
ATOM      7  C   LIG    1       -0.590  46.960   3.098  0.00  0.00    +0.000 A 
ENDBRANCH   1   5
BRANCH   1   8
ATOM      8  O   LIG    1       -4.704  45.182   3.717  0.00  0.00    -0.384 OA
ATOM      9  H   LIG    1       -4.371  45.074   4.625  0.00  0.00    +0.210 HD
ENDBRANCH   1   8
BRANCH   1  10
ATOM     10  C   LIG    1       -4.613  46.700   1.813  0.00  0.00    +0.269 C 
BRANCH  10  11
ATOM     11  O   LIG    1       -4.963  45.463   1.157  0.00  0.00    -0.448 OA
BRANCH  11  12
ATOM     12  C   LIG    1       -6.000  45.529   0.300  0.00  0.00    +0.398 C 
ATOM     13  N   LIG    1       -7.162  45.550   0.986  0.00  0.00    -0.295 N 
ATOM     14  H   LIG    1       -8.025  45.444   0.475  0.00  0.00    +0.148 HD
ATOM     15  H   LIG    1       -7.139  45.386   1.981  0.00  0.00    +0.148 HD
ATOM     16  O   LIG    1       -5.933  45.523  -0.921  0.00  0.00    -0.227 OA
ENDBRANCH  11  12
ENDBRANCH  10  11
ENDBRANCH   1  10
TORSDOF 5
ENDMDL
MODEL 5
REMARK VINA RESULT:      -5.1      1.352      2.383
REMARK  Name = ZINC00000725
REMARK                            x       y       z     vdW  Elec       q    Type
REMARK                         _______ _______ _______ _____ _____    ______ ____
ROOT
ATOM      1  C   LIG    1       -1.116  46.620   1.099  0.00  0.00    +0.182 C 
ENDROOT
BRANCH   1   5
ATOM      2  C   LIG    1       -1.511  47.528   5.314  0.00  0.00    +0.000 A 
ATOM      3  C   LIG    1       -2.577  47.772   4.453  0.00  0.00    +0.000 A 
ATOM      4  C   LIG    1       -2.460  47.471   3.094  0.00  0.00    +0.006 A 
ATOM      5  C   LIG    1       -1.267  46.940   2.575  0.00  0.00    -0.016 A 
ATOM      6  C   LIG    1       -0.207  46.689   3.458  0.00  0.00    +0.006 A 
ATOM      7  C   LIG    1       -0.328  46.982   4.819  0.00  0.00    +0.000 A 
ENDBRANCH   1   5
BRANCH   1   8
ATOM      8  O   LIG    1       -0.420  47.691   0.447  0.00  0.00    -0.384 OA
ATOM      9  H   LIG    1        0.382  47.859   0.973  0.00  0.00    +0.210 HD
ENDBRANCH   1   8
BRANCH   1  10
ATOM     10  C   LIG    1       -2.478  46.387   0.426  0.00  0.00    +0.269 C 
BRANCH  10  11
ATOM     11  O   LIG    1       -2.891  47.504  -0.389  0.00  0.00    -0.448 OA
BRANCH  11  12
ATOM     12  C   LIG    1       -4.199  47.819  -0.329  0.00  0.00    +0.398 C 
ATOM     13  N   LIG    1       -4.401  49.045  -0.858  0.00  0.00    -0.295 N 
ATOM     14  H   LIG    1       -5.306  49.476  -0.743  0.00  0.00    +0.148 HD
ATOM     15  H   LIG    1       -3.598  49.606  -1.095  0.00  0.00    +0.148 HD
ATOM     16  O   LIG    1       -5.087  47.140   0.168  0.00  0.00    -0.227 OA
ENDBRANCH  11  12
ENDBRANCH  10  11
ENDBRANCH   1  10
TORSDOF 5
ENDMDL
MODEL 6
REMARK VINA RESULT:      -5.0      6.085      7.783
REMARK  Name = ZINC00000725
REMARK                            x       y       z     vdW  Elec       q    Type
REMARK                         _______ _______ _______ _____ _____    ______ ____
ROOT
ATOM      1  C   LIG    1        0.601  44.249   6.042  0.00  0.00    +0.182 C 
ENDROOT
BRANCH   1   5
ATOM      2  C   LIG    1       -2.313  46.949   4.319  0.00  0.00    +0.000 A 
ATOM      3  C   LIG    1       -2.480  45.574   4.182  0.00  0.00    +0.000 A 
ATOM      4  C   LIG    1       -1.550  44.698   4.744  0.00  0.00    +0.006 A 
ATOM      5  C   LIG    1       -0.429  45.187   5.436  0.00  0.00    -0.016 A 
ATOM      6  C   LIG    1       -0.281  46.574   5.576  0.00  0.00    +0.006 A 
ATOM      7  C   LIG    1       -1.218  47.450   5.020  0.00  0.00    +0.000 A 
ENDBRANCH   1   5
BRANCH   1   8
ATOM      8  O   LIG    1       -0.019  42.995   6.353  0.00  0.00    -0.384 OA
ATOM      9  H   LIG    1        0.690  42.406   6.665  0.00  0.00    +0.210 HD
ENDBRANCH   1   8
BRANCH   1  10
ATOM     10  C   LIG    1        1.242  44.850   7.304  0.00  0.00    +0.269 C 
BRANCH  10  11
ATOM     11  O   LIG    1        1.624  43.842   8.264  0.00  0.00    -0.448 OA
BRANCH  11  12
ATOM     12  C   LIG    1        1.936  44.294   9.493  0.00  0.00    +0.398 C 
ATOM     13  N   LIG    1        0.821  44.724  10.121  0.00  0.00    -0.295 N 
ATOM     14  H   LIG    1        0.921  45.230  10.988  0.00  0.00    +0.148 HD
ATOM     15  H   LIG    1       -0.037  44.785   9.594  0.00  0.00    +0.148 HD
ATOM     16  O   LIG    1        3.056  44.365   9.977  0.00  0.00    -0.227 OA
ENDBRANCH  11  12
ENDBRANCH  10  11
ENDBRANCH   1  10
TORSDOF 5
ENDMDL
MODEL 7
REMARK VINA RESULT:      -5.0     12.324     13.841
REMARK  Name = ZINC00000725
REMARK                            x       y       z     vdW  Elec       q    Type
REMARK                         _______ _______ _______ _____ _____    ______ ____
ROOT
ATOM      1  C   LIG    1        9.711  43.871   5.889  0.00  0.00    +0.182 C 
ENDROOT
BRANCH   1   5
ATOM      2  C   LIG    1       13.805  44.858   4.883  0.00  0.00    +0.000 A 
ATOM      3  C   LIG    1       13.475  43.550   5.225  0.00  0.00    +0.000 A 
ATOM      4  C   LIG    1       12.154  43.223   5.540  0.00  0.00    +0.006 A 
ATOM      5  C   LIG    1       11.150  44.205   5.535  0.00  0.00    -0.016 A 
ATOM      6  C   LIG    1       11.497  45.516   5.177  0.00  0.00    +0.006 A 
ATOM      7  C   LIG    1       12.817  45.840   4.854  0.00  0.00    +0.000 A 
ENDBRANCH   1   5
BRANCH   1   8
ATOM      8  O   LIG    1        9.413  42.534   5.467  0.00  0.00    -0.384 OA
ATOM      9  H   LIG    1       10.269  42.085   5.348  0.00  0.00    +0.210 HD
ENDBRANCH   1   8
BRANCH   1  10
ATOM     10  C   LIG    1        8.724  44.861   5.248  0.00  0.00    +0.269 C 
BRANCH  10  11
ATOM     11  O   LIG    1        7.442  44.261   4.970  0.00  0.00    -0.448 OA
BRANCH  11  12
ATOM     12  C   LIG    1        6.373  45.062   5.140  0.00  0.00    +0.398 C 
ATOM     13  N   LIG    1        5.602  45.042   4.032  0.00  0.00    -0.295 N 
ATOM     14  H   LIG    1        4.851  45.710   3.955  0.00  0.00    +0.148 HD
ATOM     15  H   LIG    1        5.953  44.575   3.209  0.00  0.00    +0.148 HD
ATOM     16  O   LIG    1        6.135  45.756   6.118  0.00  0.00    -0.227 OA
ENDBRANCH  11  12
ENDBRANCH  10  11
ENDBRANCH   1  10
TORSDOF 5
ENDMDL
MODEL 8
REMARK VINA RESULT:      -4.9      2.119      2.302
REMARK  Name = ZINC00000725
REMARK                            x       y       z     vdW  Elec       q    Type
REMARK                         _______ _______ _______ _____ _____    ______ ____
ROOT
ATOM      1  C   LIG    1       -4.367  46.252   1.425  0.00  0.00    +0.182 C 
ENDROOT
BRANCH   1   5
ATOM      2  C   LIG    1       -2.565  47.573   5.134  0.00  0.00    +0.000 A 
ATOM      3  C   LIG    1       -3.610  46.653   5.164  0.00  0.00    +0.000 A 
ATOM      4  C   LIG    1       -4.189  46.215   3.970  0.00  0.00    +0.006 A 
ATOM      5  C   LIG    1       -3.741  46.705   2.732  0.00  0.00    -0.016 A 
ATOM      6  C   LIG    1       -2.679  47.622   2.719  0.00  0.00    +0.006 A 
ATOM      7  C   LIG    1       -2.095  48.053   3.913  0.00  0.00    +0.000 A 
ENDBRANCH   1   5
BRANCH   1   8
ATOM      8  O   LIG    1       -5.292  45.188   1.683  0.00  0.00    -0.384 OA
ATOM      9  H   LIG    1       -5.510  44.795   0.819  0.00  0.00    +0.210 HD
ENDBRANCH   1   8
BRANCH   1  10
ATOM     10  C   LIG    1       -3.303  45.795   0.414  0.00  0.00    +0.269 C 
BRANCH  10  11
ATOM     11  O   LIG    1       -3.200  46.682  -0.719  0.00  0.00    -0.448 OA
BRANCH  11  12
ATOM     12  C   LIG    1       -1.948  46.980  -1.117  0.00  0.00    +0.398 C 
ATOM     13  N   LIG    1       -1.486  46.015  -1.940  0.00  0.00    -0.295 N 
ATOM     14  H   LIG    1       -0.510  46.025  -2.193  0.00  0.00    +0.148 HD
ATOM     15  H   LIG    1       -2.030  45.173  -2.050  0.00  0.00    +0.148 HD
ATOM     16  O   LIG    1       -1.286  47.945  -0.763  0.00  0.00    -0.227 OA
ENDBRANCH  11  12
ENDBRANCH  10  11
ENDBRANCH   1  10
TORSDOF 5
ENDMDL
MODEL 9
REMARK VINA RESULT:      -4.8     14.094     15.683
REMARK  Name = ZINC00000725
REMARK                            x       y       z     vdW  Elec       q    Type
REMARK                         _______ _______ _______ _____ _____    ______ ____
ROOT
ATOM      1  C   LIG    1       10.510  45.254   5.731  0.00  0.00    +0.182 C 
ENDROOT
BRANCH   1   5
ATOM      2  C   LIG    1        9.667  41.011   5.929  0.00  0.00    +0.000 A 
ATOM      3  C   LIG    1       10.409  41.615   6.940  0.00  0.00    +0.000 A 
ATOM      4  C   LIG    1       10.676  42.985   6.887  0.00  0.00    +0.006 A 
ATOM      5  C   LIG    1       10.218  43.766   5.812  0.00  0.00    -0.016 A 
ATOM      6  C   LIG    1        9.461  43.144   4.808  0.00  0.00    +0.006 A 
ATOM      7  C   LIG    1        9.188  41.775   4.867  0.00  0.00    +0.000 A 
ENDBRANCH   1   5
BRANCH   1   8
ATOM      8  O   LIG    1        9.444  45.912   5.035  0.00  0.00    -0.384 OA
ATOM      9  H   LIG    1        9.720  46.838   4.919  0.00  0.00    +0.210 HD
ENDBRANCH   1   8
BRANCH   1  10
ATOM     10  C   LIG    1       11.850  45.532   5.031  0.00  0.00    +0.269 C 
BRANCH  10  11
ATOM     11  O   LIG    1       12.981  45.346   5.908  0.00  0.00    -0.448 OA
BRANCH  11  12
ATOM     12  C   LIG    1       14.108  44.899   5.322  0.00  0.00    +0.398 C 
ATOM     13  N   LIG    1       15.164  45.626   5.742  0.00  0.00    -0.295 N 
ATOM     14  H   LIG    1       16.049  45.506   5.273  0.00  0.00    +0.148 HD
ATOM     15  H   LIG    1       14.992  46.450   6.298  0.00  0.00    +0.148 HD
ATOM     16  O   LIG    1       14.187  44.004   4.493  0.00  0.00    -0.227 OA
ENDBRANCH  11  12
ENDBRANCH  10  11
ENDBRANCH   1  10
TORSDOF 5
ENDMDL
