MODEL 1
REMARK VINA RESULT:      -6.0      0.000      0.000
REMARK  Name = ZINC00000226
REMARK                            x       y       z     vdW  Elec       q    Type
REMARK                         _______ _______ _______ _____ _____    ______ ____
ROOT
ATOM      1  C   LIG    1       11.634  43.186  -5.236  0.00  0.00    +0.033 A 
ATOM      2  C   LIG    1       12.319  43.844  -6.266  0.00  0.00    +0.024 A 
ATOM      3  C   LIG    1       11.935  43.671  -7.602  0.00  0.00    +0.011 A 
ATOM      4  C   LIG    1       10.859  42.837  -7.941  0.00  0.00    -0.003 A 
ATOM      5  C   LIG    1       10.199  42.165  -6.904  0.00  0.00    +0.011 A 
ATOM      6  C   LIG    1       10.582  42.335  -5.569  0.00  0.00    +0.024 A 
ENDROOT
BRANCH   1   9
ATOM      7  C   LIG    1       12.409  43.204  -1.540  0.00  0.00    +0.109 C 
ATOM      8  C   LIG    1       11.761  42.671  -2.791  0.00  0.00    +0.214 C 
ATOM      9  N   LIG    1       12.048  43.433  -3.908  0.00  0.00    -0.286 N 
ATOM     10  H   LIG    1       12.594  44.273  -3.772  0.00  0.00    +0.155 HD
ATOM     11  O   LIG    1       11.094  41.641  -2.736  0.00  0.00    -0.276 OA
ENDBRANCH   1   9
BRANCH   4  12
ATOM     12  C   LIG    1       10.416  42.672  -9.382  0.00  0.00    +0.072 C 
ATOM     13  O   LIG    1       11.327  42.562 -10.262  0.00  0.00    -0.545 OA
ATOM     14  O   LIG    1        9.163  42.652  -9.601  0.00  0.00    -0.545 OA
ENDBRANCH   4  12
TORSDOF 2
ENDMDL
MODEL 2
REMARK VINA RESULT:      -5.3     15.986     17.121
REMARK  Name = ZINC00000226
REMARK                            x       y       z     vdW  Elec       q    Type
REMARK                         _______ _______ _______ _____ _____    ______ ____
ROOT
ATOM      1  C   LIG    1       -2.219  47.393   2.684  0.00  0.00    +0.033 A 
ATOM      2  C   LIG    1       -2.079  46.005   2.548  0.00  0.00    +0.024 A 
ATOM      3  C   LIG    1       -1.348  45.267   3.488  0.00  0.00    +0.011 A 
ATOM      4  C   LIG    1       -0.740  45.896   4.585  0.00  0.00    -0.003 A 
ATOM      5  C   LIG    1       -0.866  47.287   4.695  0.00  0.00    +0.011 A 
ATOM      6  C   LIG    1       -1.594  48.027   3.757  0.00  0.00    +0.024 A 
ENDROOT
BRANCH   1   9
ATOM      7  C   LIG    1       -3.751  49.050  -0.344  0.00  0.00    +0.109 C 
ATOM      8  C   LIG    1       -2.653  48.350   0.413  0.00  0.00    +0.214 C 
ATOM      9  N   LIG    1       -2.999  48.073   1.722  0.00  0.00    -0.286 N 
ATOM     10  H   LIG    1       -3.897  48.406   2.049  0.00  0.00    +0.155 HD
ATOM     11  O   LIG    1       -1.607  48.062  -0.163  0.00  0.00    -0.276 OA
ENDBRANCH   1   9
BRANCH   4  12
ATOM     12  C   LIG    1        0.023  45.099   5.625  0.00  0.00    +0.072 C 
ATOM     13  O   LIG    1        0.257  43.877   5.364  0.00  0.00    -0.545 OA
ATOM     14  O   LIG    1        0.375  45.716   6.680  0.00  0.00    -0.545 OA
ENDBRANCH   4  12
TORSDOF 2
ENDMDL
MODEL 3
REMARK VINA RESULT:      -5.3      2.974      5.639
REMARK  Name = ZINC00000226
REMARK                            x       y       z     vdW  Elec       q    Type
REMARK                         _______ _______ _______ _____ _____    ______ ____
ROOT
ATOM      1  C   LIG    1        9.499  41.682  -7.897  0.00  0.00    +0.033 A 
ATOM      2  C   LIG    1        9.358  41.460  -6.521  0.00  0.00    +0.024 A 
ATOM      3  C   LIG    1       10.203  42.101  -5.605  0.00  0.00    +0.011 A 
ATOM      4  C   LIG    1       11.207  42.978  -6.042  0.00  0.00    -0.003 A 
ATOM      5  C   LIG    1       11.354  43.172  -7.422  0.00  0.00    +0.011 A 
ATOM      6  C   LIG    1       10.513  42.531  -8.338  0.00  0.00    +0.024 A 
ENDROOT
BRANCH   1   9
ATOM      7  C   LIG    1        7.576  39.409 -10.220  0.00  0.00    +0.109 C 
ATOM      8  C   LIG    1        8.774  39.824  -9.408  0.00  0.00    +0.214 C 
ATOM      9  N   LIG    1        8.592  41.034  -8.765  0.00  0.00    -0.286 N 
ATOM     10  H   LIG    1        7.730  41.531  -8.942  0.00  0.00    +0.155 HD
ATOM     11  O   LIG    1        9.753  39.084  -9.351  0.00  0.00    -0.276 OA
ENDBRANCH   1   9
BRANCH   4  12
ATOM     12  C   LIG    1       12.102  43.703  -5.055  0.00  0.00    +0.072 C 
ATOM     13  O   LIG    1       12.753  44.705  -5.488  0.00  0.00    -0.545 OA
ATOM     14  O   LIG    1       12.130  43.255  -3.865  0.00  0.00    -0.545 OA
ENDBRANCH   4  12
TORSDOF 2
ENDMDL
MODEL 4
REMARK VINA RESULT:      -5.3     15.076     16.731
REMARK  Name = ZINC00000226
REMARK                            x       y       z     vdW  Elec       q    Type
REMARK                         _______ _______ _______ _____ _____    ______ ____
ROOT
ATOM      1  C   LIG    1       -1.894  46.020   1.025  0.00  0.00    +0.033 A 
ATOM      2  C   LIG    1       -0.724  46.515   1.615  0.00  0.00    +0.024 A 
ATOM      3  C   LIG    1       -0.738  46.997   2.931  0.00  0.00    +0.011 A 
ATOM      4  C   LIG    1       -1.919  46.996   3.687  0.00  0.00    -0.003 A 
ATOM      5  C   LIG    1       -3.088  46.522   3.077  0.00  0.00    +0.011 A 
ATOM      6  C   LIG    1       -3.077  46.042   1.763  0.00  0.00    +0.024 A 
ENDROOT
BRANCH   1   9
ATOM      7  C   LIG    1       -1.543  45.375  -2.679  0.00  0.00    +0.109 C 
ATOM      8  C   LIG    1       -1.652  46.246  -1.455  0.00  0.00    +0.214 C 
ATOM      9  N   LIG    1       -1.805  45.516  -0.291  0.00  0.00    -0.286 N 
ATOM     10  H   LIG    1       -1.885  44.512  -0.378  0.00  0.00    +0.155 HD
ATOM     11  O   LIG    1       -1.567  47.466  -1.570  0.00  0.00    -0.276 OA
ENDBRANCH   1   9
BRANCH   4  12
ATOM     12  C   LIG    1       -1.934  47.483   5.124  0.00  0.00    +0.072 C 
ATOM     13  O   LIG    1       -0.834  47.449   5.760  0.00  0.00    -0.545 OA
ATOM     14  O   LIG    1       -3.047  47.891   5.583  0.00  0.00    -0.545 OA
ENDBRANCH   4  12
TORSDOF 2
ENDMDL
MODEL 5
REMARK VINA RESULT:      -5.2     15.499     16.306
REMARK  Name = ZINC00000226
REMARK                            x       y       z     vdW  Elec       q    Type
REMARK                         _______ _______ _______ _____ _____    ______ ____
ROOT
ATOM      1  C   LIG    1       -1.558  46.253   2.815  0.00  0.00    +0.033 A 
ATOM      2  C   LIG    1       -0.826  46.729   1.719  0.00  0.00    +0.024 A 
ATOM      3  C   LIG    1       -1.456  47.462   0.705  0.00  0.00    +0.011 A 
ATOM      4  C   LIG    1       -2.830  47.738   0.761  0.00  0.00    -0.003 A 
ATOM      5  C   LIG    1       -3.556  47.235   1.849  0.00  0.00    +0.011 A 
ATOM      6  C   LIG    1       -2.929  46.501   2.862  0.00  0.00    +0.024 A 
ENDROOT
BRANCH   1   9
ATOM      7  C   LIG    1        0.258  45.009   5.883  0.00  0.00    +0.109 C 
ATOM      8  C   LIG    1       -0.412  46.054   5.030  0.00  0.00    +0.214 C 
ATOM      9  N   LIG    1       -0.857  45.553   3.821  0.00  0.00    -0.286 N 
ATOM     10  H   LIG    1       -0.645  44.587   3.611  0.00  0.00    +0.155 HD
ATOM     11  O   LIG    1       -0.538  47.198   5.460  0.00  0.00    -0.276 OA
ENDBRANCH   1   9
BRANCH   4  12
ATOM     12  C   LIG    1       -3.512  48.561  -0.315  0.00  0.00    +0.072 C 
ATOM     13  O   LIG    1       -4.288  49.492   0.070  0.00  0.00    -0.545 OA
ATOM     14  O   LIG    1       -3.252  48.260  -1.523  0.00  0.00    -0.545 OA
ENDBRANCH   4  12
TORSDOF 2
ENDMDL
MODEL 6
REMARK VINA RESULT:      -5.1     15.834     16.617
REMARK  Name = ZINC00000226
REMARK                            x       y       z     vdW  Elec       q    Type
REMARK                         _______ _______ _______ _____ _____    ______ ____
ROOT
ATOM      1  C   LIG    1       -0.882  46.412   4.621  0.00  0.00    +0.033 A 
ATOM      2  C   LIG    1       -0.301  46.690   3.376  0.00  0.00    +0.024 A 
ATOM      3  C   LIG    1       -1.081  47.174   2.318  0.00  0.00    +0.011 A 
ATOM      4  C   LIG    1       -2.458  47.393   2.477  0.00  0.00    -0.003 A 
ATOM      5  C   LIG    1       -3.031  47.087   3.719  0.00  0.00    +0.011 A 
ATOM      6  C   LIG    1       -2.254  46.601   4.776  0.00  0.00    +0.024 A 
ENDROOT
BRANCH   1   9
ATOM      7  C   LIG    1        1.212  44.535   7.141  0.00  0.00    +0.109 C 
ATOM      8  C   LIG    1        0.212  44.650   6.021  0.00  0.00    +0.214 C 
ATOM      9  N   LIG    1       -0.034  45.961   5.656  0.00  0.00    -0.286 N 
ATOM     10  H   LIG    1        0.419  46.687   6.195  0.00  0.00    +0.155 HD
ATOM     11  O   LIG    1       -0.258  43.631   5.520  0.00  0.00    -0.276 OA
ENDBRANCH   1   9
BRANCH   4  12
ATOM     12  C   LIG    1       -3.301  47.950   1.347  0.00  0.00    +0.072 C 
ATOM     13  O   LIG    1       -2.756  48.807   0.583  0.00  0.00    -0.545 OA
ATOM     14  O   LIG    1       -4.492  47.515   1.247  0.00  0.00    -0.545 OA
ENDBRANCH   4  12
TORSDOF 2
ENDMDL
MODEL 7
REMARK VINA RESULT:      -5.1      3.759      5.410
REMARK  Name = ZINC00000226
REMARK                            x       y       z     vdW  Elec       q    Type
REMARK                         _______ _______ _______ _____ _____    ______ ____
ROOT
ATOM      1  C   LIG    1        8.158  40.604  -6.515  0.00  0.00    +0.033 A 
ATOM      2  C   LIG    1        8.584  40.882  -5.210  0.00  0.00    +0.024 A 
ATOM      3  C   LIG    1        9.734  41.651  -4.984  0.00  0.00    +0.011 A 
ATOM      4  C   LIG    1       10.484  42.158  -6.054  0.00  0.00    -0.003 A 
ATOM      5  C   LIG    1       10.063  41.851  -7.355  0.00  0.00    +0.011 A 
ATOM      6  C   LIG    1        8.916  41.083  -7.583  0.00  0.00    +0.024 A 
ENDROOT
BRANCH   1   9
ATOM      7  C   LIG    1        4.673  39.151  -6.564  0.00  0.00    +0.109 C 
ATOM      8  C   LIG    1        5.726  40.145  -6.150  0.00  0.00    +0.214 C 
ATOM      9  N   LIG    1        6.971  39.855  -6.674  0.00  0.00    -0.286 N 
ATOM     10  H   LIG    1        7.063  39.005  -7.215  0.00  0.00    +0.155 HD
ATOM     11  O   LIG    1        5.412  41.103  -5.448  0.00  0.00    -0.276 OA
ENDBRANCH   1   9
BRANCH   4  12
ATOM     12  C   LIG    1       11.710  43.020  -5.817  0.00  0.00    +0.072 C 
ATOM     13  O   LIG    1       11.988  43.315  -4.612  0.00  0.00    -0.545 OA
ATOM     14  O   LIG    1       12.369  43.380  -6.843  0.00  0.00    -0.545 OA
ENDBRANCH   4  12
TORSDOF 2
ENDMDL
MODEL 8
REMARK VINA RESULT:      -5.1     13.983     14.643
REMARK  Name = ZINC00000226
REMARK                            x       y       z     vdW  Elec       q    Type
REMARK                         _______ _______ _______ _____ _____    ______ ____
ROOT
ATOM      1  C   LIG    1       -1.139  46.519   1.236  0.00  0.00    +0.033 A 
ATOM      2  C   LIG    1       -1.796  47.063   0.124  0.00  0.00    +0.024 A 
ATOM      3  C   LIG    1       -1.740  46.422  -1.121  0.00  0.00    +0.011 A 
ATOM      4  C   LIG    1       -1.027  45.225  -1.285  0.00  0.00    -0.003 A 
ATOM      5  C   LIG    1       -0.353  44.706  -0.172  0.00  0.00    +0.011 A 
ATOM      6  C   LIG    1       -0.406  45.345   1.072  0.00  0.00    +0.024 A 
ENDROOT
BRANCH   1   9
ATOM      7  C   LIG    1       -2.079  47.909   4.618  0.00  0.00    +0.109 C 
ATOM      8  C   LIG    1       -2.295  47.074   3.384  0.00  0.00    +0.214 C 
ATOM      9  N   LIG    1       -1.265  47.194   2.470  0.00  0.00    -0.286 N 
ATOM     10  H   LIG    1       -0.526  47.850   2.684  0.00  0.00    +0.155 HD
ATOM     11  O   LIG    1       -3.294  46.363   3.300  0.00  0.00    -0.276 OA
ENDBRANCH   1   9
BRANCH   4  12
ATOM     12  C   LIG    1       -0.991  44.508  -2.621  0.00  0.00    +0.072 C 
ATOM     13  O   LIG    1       -0.630  43.289  -2.616  0.00  0.00    -0.545 OA
ATOM     14  O   LIG    1       -1.328  45.180  -3.646  0.00  0.00    -0.545 OA
ENDBRANCH   4  12
TORSDOF 2
ENDMDL
MODEL 9
REMARK VINA RESULT:      -5.0      3.457      4.244
REMARK  Name = ZINC00000226
REMARK                            x       y       z     vdW  Elec       q    Type
REMARK                         _______ _______ _______ _____ _____    ______ ____
ROOT
ATOM      1  C   LIG    1        8.311  40.703  -5.779  0.00  0.00    +0.033 A 
ATOM      2  C   LIG    1        9.274  41.672  -5.468  0.00  0.00    +0.024 A 
ATOM      3  C   LIG    1       10.064  42.242  -6.475  0.00  0.00    +0.011 A 
ATOM      4  C   LIG    1        9.911  41.859  -7.816  0.00  0.00    -0.003 A 
ATOM      5  C   LIG    1        8.962  40.871  -8.111  0.00  0.00    +0.011 A 
ATOM      6  C   LIG    1        8.173  40.299  -7.106  0.00  0.00    +0.024 A 
ENDROOT
BRANCH   1   9
ATOM      7  C   LIG    1        5.664  39.738  -3.265  0.00  0.00    +0.109 C 
ATOM      8  C   LIG    1        6.206  40.507  -4.441  0.00  0.00    +0.214 C 
ATOM      9  N   LIG    1        7.523  40.195  -4.723  0.00  0.00    -0.286 N 
ATOM     10  H   LIG    1        7.994  39.552  -4.101  0.00  0.00    +0.155 HD
ATOM     11  O   LIG    1        5.472  41.281  -5.049  0.00  0.00    -0.276 OA
ENDBRANCH   1   9
BRANCH   4  12
ATOM     12  C   LIG    1       10.737  42.497  -8.916  0.00  0.00    +0.072 C 
ATOM     13  O   LIG    1       10.468  42.163 -10.113  0.00  0.00    -0.545 OA
ATOM     14  O   LIG    1       11.636  43.322  -8.557  0.00  0.00    -0.545 OA
ENDBRANCH   4  12
TORSDOF 2
ENDMDL
