MODEL 1
REMARK VINA RESULT:      -4.3      0.000      0.000
REMARK  Name = ZINC00000411
REMARK                            x       y       z     vdW  Elec       q    Type
REMARK                         _______ _______ _______ _____ _____    ______ ____
ROOT
ATOM      1  C   LIG    1       -2.620  48.255  -0.006  0.00  0.00    +0.240 C 
ATOM      2  O   LIG    1       -1.605  48.111  -0.712  0.00  0.00    -0.287 OA
ENDROOT
BRANCH   1   3
ATOM      3  C   LIG    1       -2.635  47.939   1.497  0.00  0.00    +0.189 C 
ATOM      4  C   LIG    1       -1.401  47.139   1.930  0.00  0.00    +0.046 C 
BRANCH   3   5
ATOM      5  O   LIG    1       -3.865  47.389   1.975  0.00  0.00    -0.369 OA
BRANCH   5   7
ATOM      6  C   LIG    1       -4.400  45.995   3.871  0.00  0.00    +0.034 C 
ATOM      7  C   LIG    1       -3.790  46.056   2.479  0.00  0.00    +0.157 C 
ENDBRANCH   5   7
ENDBRANCH   3   5
ENDBRANCH   1   3
BRANCH   1   8
ATOM      8  C   LIG    1       -3.938  48.792  -0.607  0.00  0.00    +0.419 C 
BRANCH   8   9
ATOM      9  O   LIG    1       -4.489  49.851   0.151  0.00  0.00    -0.502 OA
ATOM     10  H   LIG    1       -5.177  49.437   0.705  0.00  0.00    +0.288 HD
ENDBRANCH   8   9
BRANCH   8  11
ATOM     11  O   LIG    1       -4.938  47.806  -0.700  0.00  0.00    -0.502 OA
ATOM     12  H   LIG    1       -5.730  48.214  -0.310  0.00  0.00    +0.288 HD
ENDBRANCH   8  11
ENDBRANCH   1   8
TORSDOF 6
ENDMDL
MODEL 2
REMARK VINA RESULT:      -4.2     15.178     17.006
REMARK  Name = ZINC00000411
REMARK                            x       y       z     vdW  Elec       q    Type
REMARK                         _______ _______ _______ _____ _____    ______ ____
ROOT
ATOM      1  C   LIG    1       13.134  44.951   6.560  0.00  0.00    +0.240 C 
ATOM      2  O   LIG    1       13.389  45.405   7.690  0.00  0.00    -0.287 OA
ENDROOT
BRANCH   1   3
ATOM      3  C   LIG    1       11.956  44.001   6.295  0.00  0.00    +0.189 C 
ATOM      4  C   LIG    1       12.374  42.528   6.379  0.00  0.00    +0.046 C 
BRANCH   3   5
ATOM      5  O   LIG    1       11.197  44.309   5.124  0.00  0.00    -0.369 OA
BRANCH   5   7
ATOM      6  C   LIG    1        8.814  44.629   5.346  0.00  0.00    +0.034 C 
ATOM      7  C   LIG    1       10.180  45.297   5.290  0.00  0.00    +0.157 C 
ENDBRANCH   5   7
ENDBRANCH   3   5
ENDBRANCH   1   3
BRANCH   1   8
ATOM      8  C   LIG    1       13.986  45.344   5.333  0.00  0.00    +0.419 C 
BRANCH   8   9
ATOM      9  O   LIG    1       15.307  45.710   5.683  0.00  0.00    -0.502 OA
ATOM     10  H   LIG    1       15.498  46.509   5.156  0.00  0.00    +0.288 HD
ENDBRANCH   8   9
BRANCH   8  11
ATOM     11  O   LIG    1       13.447  46.431   4.619  0.00  0.00    -0.502 OA
ATOM     12  H   LIG    1       13.395  46.124   3.697  0.00  0.00    +0.288 HD
ENDBRANCH   8  11
ENDBRANCH   1   8
TORSDOF 6
ENDMDL
MODEL 3
REMARK VINA RESULT:      -4.2      2.236      4.719
REMARK  Name = ZINC00000411
REMARK                            x       y       z     vdW  Elec       q    Type
REMARK                         _______ _______ _______ _____ _____    ______ ____
ROOT
ATOM      1  C   LIG    1       -3.827  46.386   3.378  0.00  0.00    +0.240 C 
ATOM      2  O   LIG    1       -4.832  46.244   2.658  0.00  0.00    -0.287 OA
ENDROOT
BRANCH   1   3
ATOM      3  C   LIG    1       -2.548  47.081   2.888  0.00  0.00    +0.189 C 
ATOM      4  C   LIG    1       -2.033  48.116   3.895  0.00  0.00    +0.046 C 
BRANCH   3   5
ATOM      5  O   LIG    1       -2.619  47.578   1.549  0.00  0.00    -0.369 OA
BRANCH   5   7
ATOM      6  C   LIG    1       -1.435  47.820  -0.540  0.00  0.00    +0.034 C 
ATOM      7  C   LIG    1       -1.829  46.879   0.588  0.00  0.00    +0.157 C 
ENDBRANCH   5   7
ENDBRANCH   3   5
ENDBRANCH   1   3
BRANCH   1   8
ATOM      8  C   LIG    1       -3.817  45.883   4.839  0.00  0.00    +0.419 C 
BRANCH   8   9
ATOM      9  O   LIG    1       -4.184  44.522   4.949  0.00  0.00    -0.502 OA
ATOM     10  H   LIG    1       -3.432  44.024   4.576  0.00  0.00    +0.288 HD
ENDBRANCH   8   9
BRANCH   8  11
ATOM     11  O   LIG    1       -4.699  46.602   5.669  0.00  0.00    -0.502 OA
ATOM     12  H   LIG    1       -4.838  47.449   5.213  0.00  0.00    +0.288 HD
ENDBRANCH   8  11
ENDBRANCH   1   8
TORSDOF 6
ENDMDL
MODEL 4
REMARK VINA RESULT:      -4.2      2.544      4.682
REMARK  Name = ZINC00000411
REMARK                            x       y       z     vdW  Elec       q    Type
REMARK                         _______ _______ _______ _____ _____    ______ ____
ROOT
ATOM      1  C   LIG    1       -2.453  45.770   4.248  0.00  0.00    +0.240 C 
ATOM      2  O   LIG    1       -1.588  45.083   4.821  0.00  0.00    -0.287 OA
ENDROOT
BRANCH   1   3
ATOM      3  C   LIG    1       -2.101  46.947   3.328  0.00  0.00    +0.189 C 
ATOM      4  C   LIG    1       -1.331  48.048   4.068  0.00  0.00    +0.046 C 
BRANCH   3   5
ATOM      5  O   LIG    1       -3.196  47.443   2.554  0.00  0.00    -0.369 OA
BRANCH   5   7
ATOM      6  C   LIG    1       -3.222  48.953   0.671  0.00  0.00    +0.034 C 
ATOM      7  C   LIG    1       -2.969  47.531   1.148  0.00  0.00    +0.157 C 
ENDBRANCH   5   7
ENDBRANCH   3   5
ENDBRANCH   1   3
BRANCH   1   8
ATOM      8  C   LIG    1       -3.957  45.455   4.415  0.00  0.00    +0.419 C 
BRANCH   8   9
ATOM      9  O   LIG    1       -4.657  46.484   5.087  0.00  0.00    -0.502 OA
ATOM     10  H   LIG    1       -4.703  46.196   6.017  0.00  0.00    +0.288 HD
ENDBRANCH   8   9
BRANCH   8  11
ATOM     11  O   LIG    1       -4.191  44.273   5.143  0.00  0.00    -0.502 OA
ATOM     12  H   LIG    1       -4.438  44.573   6.035  0.00  0.00    +0.288 HD
ENDBRANCH   8  11
ENDBRANCH   1   8
TORSDOF 6
ENDMDL
MODEL 5
REMARK VINA RESULT:      -4.1      1.638      3.188
REMARK  Name = ZINC00000411
REMARK                            x       y       z     vdW  Elec       q    Type
REMARK                         _______ _______ _______ _____ _____    ______ ____
ROOT
ATOM      1  C   LIG    1       -3.803  47.536   0.958  0.00  0.00    +0.240 C 
ATOM      2  O   LIG    1       -4.640  46.907   1.632  0.00  0.00    -0.287 OA
ENDROOT
BRANCH   1   3
ATOM      3  C   LIG    1       -2.384  47.010   0.700  0.00  0.00    +0.189 C 
ATOM      4  C   LIG    1       -1.496  47.108   1.946  0.00  0.00    +0.046 C 
BRANCH   3   5
ATOM      5  O   LIG    1       -1.765  47.529  -0.480  0.00  0.00    -0.369 OA
BRANCH   5   7
ATOM      6  C   LIG    1       -1.216  45.331  -1.313  0.00  0.00    +0.034 C 
ATOM      7  C   LIG    1       -1.827  46.687  -1.631  0.00  0.00    +0.157 C 
ENDBRANCH   5   7
ENDBRANCH   3   5
ENDBRANCH   1   3
BRANCH   1   8
ATOM      8  C   LIG    1       -4.159  48.894   0.313  0.00  0.00    +0.419 C 
BRANCH   8   9
ATOM      9  O   LIG    1       -4.540  48.768  -1.044  0.00  0.00    -0.502 OA
ATOM     10  H   LIG    1       -5.237  48.086  -1.051  0.00  0.00    +0.288 HD
ENDBRANCH   8   9
BRANCH   8  11
ATOM     11  O   LIG    1       -3.091  49.810   0.343  0.00  0.00    -0.502 OA
ATOM     12  H   LIG    1       -2.829  49.921  -0.587  0.00  0.00    +0.288 HD
ENDBRANCH   8  11
ENDBRANCH   1   8
TORSDOF 6
ENDMDL
MODEL 6
REMARK VINA RESULT:      -4.1     15.571     17.336
REMARK  Name = ZINC00000411
REMARK                            x       y       z     vdW  Elec       q    Type
REMARK                         _______ _______ _______ _____ _____    ______ ____
ROOT
ATOM      1  C   LIG    1       12.678  45.216   5.755  0.00  0.00    +0.240 C 
ATOM      2  O   LIG    1       12.623  46.037   4.821  0.00  0.00    -0.287 OA
ENDROOT
BRANCH   1   3
ATOM      3  C   LIG    1       11.484  44.340   6.158  0.00  0.00    +0.189 C 
ATOM      4  C   LIG    1       10.143  44.998   5.814  0.00  0.00    +0.046 C 
BRANCH   3   5
ATOM      5  O   LIG    1       11.543  43.836   7.495  0.00  0.00    -0.369 OA
BRANCH   5   7
ATOM      6  C   LIG    1       12.223  41.646   6.742  0.00  0.00    +0.034 C 
ATOM      7  C   LIG    1       11.287  42.440   7.641  0.00  0.00    +0.157 C 
ENDBRANCH   5   7
ENDBRANCH   3   5
ENDBRANCH   1   3
BRANCH   1   8
ATOM      8  C   LIG    1       13.982  45.012   6.559  0.00  0.00    +0.419 C 
BRANCH   8   9
ATOM      9  O   LIG    1       13.894  45.519   7.876  0.00  0.00    -0.502 OA
ATOM     10  H   LIG    1       12.958  45.769   7.991  0.00  0.00    +0.288 HD
ENDBRANCH   8   9
BRANCH   8  11
ATOM     11  O   LIG    1       15.094  45.638   5.964  0.00  0.00    -0.502 OA
ATOM     12  H   LIG    1       14.716  46.261   5.321  0.00  0.00    +0.288 HD
ENDBRANCH   8  11
ENDBRANCH   1   8
TORSDOF 6
ENDMDL
MODEL 7
REMARK VINA RESULT:      -4.0      8.963     10.253
REMARK  Name = ZINC00000411
REMARK                            x       y       z     vdW  Elec       q    Type
REMARK                         _______ _______ _______ _____ _____    ______ ____
ROOT
ATOM      1  C   LIG    1        2.726  45.389   9.003  0.00  0.00    +0.240 C 
ATOM      2  O   LIG    1        3.575  46.298   9.043  0.00  0.00    -0.287 OA
ENDROOT
BRANCH   1   3
ATOM      3  C   LIG    1        3.093  43.924   8.723  0.00  0.00    +0.189 C 
ATOM      4  C   LIG    1        4.558  43.769   8.298  0.00  0.00    +0.046 C 
BRANCH   3   5
ATOM      5  O   LIG    1        2.178  43.236   7.867  0.00  0.00    -0.369 OA
BRANCH   5   7
ATOM      6  C   LIG    1        1.589  44.108   5.694  0.00  0.00    +0.034 C 
ATOM      7  C   LIG    1        2.528  43.208   6.484  0.00  0.00    +0.157 C 
ENDBRANCH   5   7
ENDBRANCH   3   5
ENDBRANCH   1   3
BRANCH   1   8
ATOM      8  C   LIG    1        1.232  45.683   9.264  0.00  0.00    +0.419 C 
BRANCH   8   9
ATOM      9  O   LIG    1        1.021  46.953   9.849  0.00  0.00    -0.502 OA
ATOM     10  H   LIG    1        1.552  47.572   9.313  0.00  0.00    +0.288 HD
ENDBRANCH   8   9
BRANCH   8  11
ATOM     11  O   LIG    1        0.632  44.743  10.124  0.00  0.00    -0.502 OA
ATOM     12  H   LIG    1        1.260  44.002  10.163  0.00  0.00    +0.288 HD
ENDBRANCH   8  11
ENDBRANCH   1   8
TORSDOF 6
ENDMDL
MODEL 8
REMARK VINA RESULT:      -4.0      1.455      2.261
REMARK  Name = ZINC00000411
REMARK                            x       y       z     vdW  Elec       q    Type
REMARK                         _______ _______ _______ _____ _____    ______ ____
ROOT
ATOM      1  C   LIG    1       -4.278  47.634   0.264  0.00  0.00    +0.240 C 
ATOM      2  O   LIG    1       -5.321  47.074  -0.123  0.00  0.00    -0.287 OA
ENDROOT
BRANCH   1   3
ATOM      3  C   LIG    1       -3.322  46.995   1.281  0.00  0.00    +0.189 C 
ATOM      4  C   LIG    1       -3.558  45.486   1.424  0.00  0.00    +0.046 C 
BRANCH   3   5
ATOM      5  O   LIG    1       -3.245  47.678   2.534  0.00  0.00    -0.369 OA
BRANCH   5   7
ATOM      6  C   LIG    1       -2.275  47.699   4.744  0.00  0.00    +0.034 C 
ATOM      7  C   LIG    1       -2.025  47.510   3.255  0.00  0.00    +0.157 C 
ENDBRANCH   5   7
ENDBRANCH   3   5
ENDBRANCH   1   3
BRANCH   1   8
ATOM      8  C   LIG    1       -3.867  49.018  -0.288  0.00  0.00    +0.419 C 
BRANCH   8   9
ATOM      9  O   LIG    1       -2.676  49.505   0.298  0.00  0.00    -0.502 OA
ATOM     10  H   LIG    1       -2.443  48.851   0.983  0.00  0.00    +0.288 HD
ENDBRANCH   8   9
BRANCH   8  11
ATOM     11  O   LIG    1       -4.849  50.005  -0.074  0.00  0.00    -0.502 OA
ATOM     12  H   LIG    1       -4.984  50.019   0.889  0.00  0.00    +0.288 HD
ENDBRANCH   8  11
ENDBRANCH   1   8
TORSDOF 6
ENDMDL
MODEL 9
REMARK VINA RESULT:      -3.9      8.654     10.316
REMARK  Name = ZINC00000411
REMARK                            x       y       z     vdW  Elec       q    Type
REMARK                         _______ _______ _______ _____ _____    ______ ____
ROOT
ATOM      1  C   LIG    1        1.368  44.916   7.741  0.00  0.00    +0.240 C 
ATOM      2  O   LIG    1        0.627  44.946   6.742  0.00  0.00    -0.287 OA
ENDROOT
BRANCH   1   3
ATOM      3  C   LIG    1        2.726  44.198   7.744  0.00  0.00    +0.189 C 
ATOM      4  C   LIG    1        2.687  42.887   6.949  0.00  0.00    +0.046 C 
BRANCH   3   5
ATOM      5  O   LIG    1        3.321  44.061   9.036  0.00  0.00    -0.369 OA
BRANCH   5   7
ATOM      6  C   LIG    1        4.988  45.662   8.339  0.00  0.00    +0.034 C 
ATOM      7  C   LIG    1        4.710  44.382   9.114  0.00  0.00    +0.157 C 
ENDBRANCH   5   7
ENDBRANCH   3   5
ENDBRANCH   1   3
BRANCH   1   8
ATOM      8  C   LIG    1        0.969  45.632   9.051  0.00  0.00    +0.419 C 
BRANCH   8   9
ATOM      9  O   LIG    1        1.886  46.643   9.420  0.00  0.00    -0.502 OA
ATOM     10  H   LIG    1        1.788  46.736  10.386  0.00  0.00    +0.288 HD
ENDBRANCH   8   9
BRANCH   8  11
ATOM     11  O   LIG    1        0.880  44.755  10.148  0.00  0.00    -0.502 OA
ATOM     12  H   LIG    1        1.272  45.244  10.892  0.00  0.00    +0.288 HD
ENDBRANCH   8  11
ENDBRANCH   1   8
TORSDOF 6
ENDMDL
