MODEL 1
REMARK VINA RESULT:      -5.2      0.000      0.000
REMARK  Name = ZINC00000558
REMARK                            x       y       z     vdW  Elec       q    Type
REMARK                         _______ _______ _______ _____ _____    ______ ____
ROOT
ATOM      1  C   LIG    1        2.986  44.110   7.137  0.00  0.00    +0.010 A 
ATOM      2  C   LIG    1        4.325  44.446   7.411  0.00  0.00    -0.014 A 
ATOM      3  C   LIG    1        4.693  44.686   8.746  0.00  0.00    +0.010 A 
ATOM      4  C   LIG    1        3.753  44.593   9.773  0.00  0.00    +0.046 A 
ATOM      5  C   LIG    1        2.439  44.255   9.479  0.00  0.00    +0.117 A 
ATOM      6  C   LIG    1        2.048  44.011   8.169  0.00  0.00    +0.046 A 
ENDROOT
BRANCH   5   7
ATOM      7  O   LIG    1        1.567  44.169  10.520  0.00  0.00    -0.507 OA
ATOM      8  H   LIG    1        1.847  44.768  11.232  0.00  0.00    +0.292 HD
ENDBRANCH   5   7
BRANCH   2   9
ATOM      9  C   LIG    1        5.324  44.542   6.278  0.00  0.00    +0.189 C 
BRANCH   9  10
ATOM     10  O   LIG    1        5.760  45.901   6.121  0.00  0.00    -0.382 OA
ATOM     11  H   LIG    1        5.718  46.308   7.012  0.00  0.00    +0.210 HD
ENDBRANCH   9  10
BRANCH   9  12
ATOM     12  C   LIG    1        4.737  44.112   4.918  0.00  0.00    +0.164 C 
BRANCH  12  13
ATOM     13  N   LIG    1        5.303  44.986   3.845  0.00  0.00    +0.221 N 
ATOM     14  H   LIG    1        4.601  45.301   3.168  0.00  0.00    +0.200 HD
ATOM     15  H   LIG    1        6.017  44.426   3.347  0.00  0.00    +0.200 HD
ATOM     16  H   LIG    1        5.784  45.803   4.241  0.00  0.00    +0.200 HD
ENDBRANCH  12  13
ENDBRANCH   9  12
ENDBRANCH   2   9
TORSDOF 5
ENDMDL
MODEL 2
REMARK VINA RESULT:      -5.2     12.473     14.022
REMARK  Name = ZINC00000558
REMARK                            x       y       z     vdW  Elec       q    Type
REMARK                         _______ _______ _______ _____ _____    ______ ____
ROOT
ATOM      1  C   LIG    1       10.846  41.848  -3.859  0.00  0.00    +0.010 A 
ATOM      2  C   LIG    1       11.691  42.929  -4.174  0.00  0.00    -0.014 A 
ATOM      3  C   LIG    1       12.393  43.554  -3.129  0.00  0.00    +0.010 A 
ATOM      4  C   LIG    1       12.255  43.113  -1.812  0.00  0.00    +0.046 A 
ATOM      5  C   LIG    1       11.420  42.040  -1.527  0.00  0.00    +0.117 A 
ATOM      6  C   LIG    1       10.716  41.404  -2.539  0.00  0.00    +0.046 A 
ENDROOT
BRANCH   5   7
ATOM      7  O   LIG    1       11.331  41.645  -0.228  0.00  0.00    -0.507 OA
ATOM      8  H   LIG    1       11.846  42.250   0.334  0.00  0.00    +0.292 HD
ENDBRANCH   5   7
BRANCH   2   9
ATOM      9  C   LIG    1       11.821  43.389  -5.610  0.00  0.00    +0.189 C 
BRANCH   9  10
ATOM     10  O   LIG    1       12.664  42.486  -6.341  0.00  0.00    -0.382 OA
ATOM     11  H   LIG    1       12.438  41.585  -6.029  0.00  0.00    +0.210 HD
ENDBRANCH   9  10
BRANCH   9  12
ATOM     12  C   LIG    1       12.461  44.786  -5.740  0.00  0.00    +0.164 C 
BRANCH  12  13
ATOM     13  N   LIG    1       13.606  44.711  -6.698  0.00  0.00    +0.221 N 
ATOM     14  H   LIG    1       13.833  43.753  -6.982  0.00  0.00    +0.200 HD
ATOM     15  H   LIG    1       14.427  45.119  -6.218  0.00  0.00    +0.200 HD
ATOM     16  H   LIG    1       13.433  45.281  -7.535  0.00  0.00    +0.200 HD
ENDBRANCH  12  13
ENDBRANCH   9  12
ENDBRANCH   2   9
TORSDOF 5
ENDMDL
MODEL 3
REMARK VINA RESULT:      -5.1      6.925      9.117
REMARK  Name = ZINC00000558
REMARK                            x       y       z     vdW  Elec       q    Type
REMARK                         _______ _______ _______ _____ _____    ______ ____
ROOT
ATOM      1  C   LIG    1       12.031  44.695   7.125  0.00  0.00    +0.010 A 
ATOM      2  C   LIG    1       11.488  43.982   6.039  0.00  0.00    -0.014 A 
ATOM      3  C   LIG    1       12.256  43.863   4.868  0.00  0.00    +0.010 A 
ATOM      4  C   LIG    1       13.524  44.438   4.784  0.00  0.00    +0.046 A 
ATOM      5  C   LIG    1       14.041  45.132   5.870  0.00  0.00    +0.117 A 
ATOM      6  C   LIG    1       13.306  45.264   7.040  0.00  0.00    +0.046 A 
ENDROOT
BRANCH   5   7
ATOM      7  O   LIG    1       15.287  45.664   5.737  0.00  0.00    -0.507 OA
ATOM      8  H   LIG    1       15.955  44.976   5.898  0.00  0.00    +0.292 HD
ENDBRANCH   5   7
BRANCH   2   9
ATOM      9  C   LIG    1       10.109  43.370   6.155  0.00  0.00    +0.189 C 
BRANCH   9  10
ATOM     10  O   LIG    1       10.192  41.942   6.022  0.00  0.00    -0.382 OA
ATOM     11  H   LIG    1       10.862  41.770   5.327  0.00  0.00    +0.210 HD
ENDBRANCH   9  10
BRANCH   9  12
ATOM     12  C   LIG    1        9.140  43.855   5.059  0.00  0.00    +0.164 C 
BRANCH  12  13
ATOM     13  N   LIG    1        8.910  45.323   5.226  0.00  0.00    +0.221 N 
ATOM     14  H   LIG    1        9.643  45.898   4.799  0.00  0.00    +0.200 HD
ATOM     15  H   LIG    1        8.890  45.510   6.244  0.00  0.00    +0.200 HD
ATOM     16  H   LIG    1        7.995  45.605   4.850  0.00  0.00    +0.200 HD
ENDBRANCH  12  13
ENDBRANCH   9  12
ENDBRANCH   2   9
TORSDOF 5
ENDMDL
MODEL 4
REMARK VINA RESULT:      -5.0      9.520     10.221
REMARK  Name = ZINC00000558
REMARK                            x       y       z     vdW  Elec       q    Type
REMARK                         _______ _______ _______ _____ _____    ______ ____
ROOT
ATOM      1  C   LIG    1       -2.681  47.702   2.425  0.00  0.00    +0.010 A 
ATOM      2  C   LIG    1       -3.585  47.905   1.365  0.00  0.00    -0.014 A 
ATOM      3  C   LIG    1       -4.768  47.147   1.342  0.00  0.00    +0.010 A 
ATOM      4  C   LIG    1       -5.039  46.216   2.345  0.00  0.00    +0.046 A 
ATOM      5  C   LIG    1       -4.135  46.037   3.384  0.00  0.00    +0.117 A 
ATOM      6  C   LIG    1       -2.960  46.774   3.433  0.00  0.00    +0.046 A 
ENDROOT
BRANCH   5   7
ATOM      7  O   LIG    1       -4.455  45.124   4.342  0.00  0.00    -0.507 OA
ATOM      8  H   LIG    1       -5.399  44.901   4.279  0.00  0.00    +0.292 HD
ENDBRANCH   5   7
BRANCH   2   9
ATOM      9  C   LIG    1       -3.265  48.919   0.288  0.00  0.00    +0.189 C 
BRANCH   9  10
ATOM     10  O   LIG    1       -4.436  49.692  -0.022  0.00  0.00    -0.382 OA
ATOM     11  H   LIG    1       -5.191  49.067  -0.001  0.00  0.00    +0.210 HD
ENDBRANCH   9  10
BRANCH   9  12
ATOM     12  C   LIG    1       -2.808  48.271  -1.035  0.00  0.00    +0.164 C 
BRANCH  12  13
ATOM     13  N   LIG    1       -1.327  48.069  -0.992  0.00  0.00    +0.221 N 
ATOM     14  H   LIG    1       -0.976  47.848  -0.055  0.00  0.00    +0.200 HD
ATOM     15  H   LIG    1       -0.894  48.953  -1.311  0.00  0.00    +0.200 HD
ATOM     16  H   LIG    1       -1.030  47.335  -1.648  0.00  0.00    +0.200 HD
ENDBRANCH  12  13
ENDBRANCH   9  12
ENDBRANCH   2   9
TORSDOF 5
ENDMDL
MODEL 5
REMARK VINA RESULT:      -5.0      9.647     10.664
REMARK  Name = ZINC00000558
REMARK                            x       y       z     vdW  Elec       q    Type
REMARK                         _______ _______ _______ _____ _____    ______ ____
ROOT
ATOM      1  C   LIG    1       -4.420  46.253   1.203  0.00  0.00    +0.010 A 
ATOM      2  C   LIG    1       -3.400  46.637   2.094  0.00  0.00    -0.014 A 
ATOM      3  C   LIG    1       -2.772  47.878   1.894  0.00  0.00    +0.010 A 
ATOM      4  C   LIG    1       -3.149  48.708   0.837  0.00  0.00    +0.046 A 
ATOM      5  C   LIG    1       -4.162  48.310  -0.026  0.00  0.00    +0.117 A 
ATOM      6  C   LIG    1       -4.801  47.090   0.149  0.00  0.00    +0.046 A 
ENDROOT
BRANCH   5   7
ATOM      7  O   LIG    1       -4.497  49.162  -1.032  0.00  0.00    -0.507 OA
ATOM      8  H   LIG    1       -5.287  48.830  -1.493  0.00  0.00    +0.292 HD
ENDBRANCH   5   7
BRANCH   2   9
ATOM      9  C   LIG    1       -3.008  45.718   3.231  0.00  0.00    +0.189 C 
BRANCH   9  10
ATOM     10  O   LIG    1       -2.989  44.356   2.776  0.00  0.00    -0.382 OA
ATOM     11  H   LIG    1       -3.105  43.798   3.574  0.00  0.00    +0.210 HD
ENDBRANCH   9  10
BRANCH   9  12
ATOM     12  C   LIG    1       -3.993  45.770   4.415  0.00  0.00    +0.164 C 
BRANCH  12  13
ATOM     13  N   LIG    1       -4.124  44.400   5.001  0.00  0.00    +0.221 N 
ATOM     14  H   LIG    1       -3.225  43.984   5.261  0.00  0.00    +0.200 HD
ATOM     15  H   LIG    1       -4.570  43.806   4.280  0.00  0.00    +0.200 HD
ATOM     16  H   LIG    1       -4.748  44.400   5.818  0.00  0.00    +0.200 HD
ENDBRANCH  12  13
ENDBRANCH   9  12
ENDBRANCH   2   9
TORSDOF 5
ENDMDL
MODEL 6
REMARK VINA RESULT:      -4.9      6.838      8.343
REMARK  Name = ZINC00000558
REMARK                            x       y       z     vdW  Elec       q    Type
REMARK                         _______ _______ _______ _____ _____    ______ ____
ROOT
ATOM      1  C   LIG    1       11.107  43.155   6.224  0.00  0.00    +0.010 A 
ATOM      2  C   LIG    1       11.838  44.349   6.368  0.00  0.00    -0.014 A 
ATOM      3  C   LIG    1       11.277  45.539   5.873  0.00  0.00    +0.010 A 
ATOM      4  C   LIG    1       10.026  45.536   5.255  0.00  0.00    +0.046 A 
ATOM      5  C   LIG    1        9.320  44.346   5.129  0.00  0.00    +0.117 A 
ATOM      6  C   LIG    1        9.850  43.156   5.610  0.00  0.00    +0.046 A 
ENDROOT
BRANCH   5   7
ATOM      7  O   LIG    1        8.101  44.402   4.527  0.00  0.00    -0.507 OA
ATOM      8  H   LIG    1        7.710  45.282   4.661  0.00  0.00    +0.292 HD
ENDBRANCH   5   7
BRANCH   2   9
ATOM      9  C   LIG    1       13.194  44.325   7.040  0.00  0.00    +0.189 C 
BRANCH   9  10
ATOM     10  O   LIG    1       13.380  45.521   7.813  0.00  0.00    -0.382 OA
ATOM     11  H   LIG    1       14.342  45.709   7.801  0.00  0.00    +0.210 HD
ENDBRANCH   9  10
BRANCH   9  12
ATOM     12  C   LIG    1       14.363  44.266   6.037  0.00  0.00    +0.164 C 
BRANCH  12  13
ATOM     13  N   LIG    1       14.912  45.644   5.847  0.00  0.00    +0.221 N 
ATOM     14  H   LIG    1       14.256  46.382   6.122  0.00  0.00    +0.200 HD
ATOM     15  H   LIG    1       15.124  45.746   4.839  0.00  0.00    +0.200 HD
ATOM     16  H   LIG    1       15.796  45.769   6.356  0.00  0.00    +0.200 HD
ENDBRANCH  12  13
ENDBRANCH   9  12
ENDBRANCH   2   9
TORSDOF 5
ENDMDL
MODEL 7
REMARK VINA RESULT:      -4.9      8.247      8.839
REMARK  Name = ZINC00000558
REMARK                            x       y       z     vdW  Elec       q    Type
REMARK                         _______ _______ _______ _____ _____    ______ ____
ROOT
ATOM      1  C   LIG    1       -2.586  48.167   2.842  0.00  0.00    +0.010 A 
ATOM      2  C   LIG    1       -1.818  47.671   1.772  0.00  0.00    -0.014 A 
ATOM      3  C   LIG    1       -0.612  47.012   2.065  0.00  0.00    +0.010 A 
ATOM      4  C   LIG    1       -0.187  46.853   3.385  0.00  0.00    +0.046 A 
ATOM      5  C   LIG    1       -0.965  47.346   4.425  0.00  0.00    +0.117 A 
ATOM      6  C   LIG    1       -2.161  48.000   4.164  0.00  0.00    +0.046 A 
ENDROOT
BRANCH   5   7
ATOM      7  O   LIG    1       -0.508  47.155   5.692  0.00  0.00    -0.507 OA
ATOM      8  H   LIG    1       -1.168  46.659   6.206  0.00  0.00    +0.292 HD
ENDBRANCH   5   7
BRANCH   2   9
ATOM      9  C   LIG    1       -2.300  47.858   0.349  0.00  0.00    +0.189 C 
BRANCH   9  10
ATOM     10  O   LIG    1       -1.196  48.205  -0.502  0.00  0.00    -0.382 OA
ATOM     11  H   LIG    1       -1.230  49.178  -0.614  0.00  0.00    +0.210 HD
ENDBRANCH   9  10
BRANCH   9  12
ATOM     12  C   LIG    1       -3.334  48.993   0.207  0.00  0.00    +0.164 C 
BRANCH  12  13
ATOM     13  N   LIG    1       -4.458  48.523  -0.659  0.00  0.00    +0.221 N 
ATOM     14  H   LIG    1       -5.378  48.836  -0.333  0.00  0.00    +0.200 HD
ATOM     15  H   LIG    1       -4.435  47.488  -0.646  0.00  0.00    +0.200 HD
ATOM     16  H   LIG    1       -4.327  48.815  -1.636  0.00  0.00    +0.200 HD
ENDBRANCH  12  13
ENDBRANCH   9  12
ENDBRANCH   2   9
TORSDOF 5
ENDMDL
MODEL 8
REMARK VINA RESULT:      -4.5      8.889      9.959
REMARK  Name = ZINC00000558
REMARK                            x       y       z     vdW  Elec       q    Type
REMARK                         _______ _______ _______ _____ _____    ______ ____
ROOT
ATOM      1  C   LIG    1       -1.302  47.393  -0.203  0.00  0.00    +0.010 A 
ATOM      2  C   LIG    1       -1.606  47.107   1.141  0.00  0.00    -0.014 A 
ATOM      3  C   LIG    1       -2.855  47.513   1.643  0.00  0.00    +0.010 A 
ATOM      4  C   LIG    1       -3.769  48.182   0.829  0.00  0.00    +0.046 A 
ATOM      5  C   LIG    1       -3.448  48.448  -0.496  0.00  0.00    +0.117 A 
ATOM      6  C   LIG    1       -2.223  48.057  -1.019  0.00  0.00    +0.046 A 
ENDROOT
BRANCH   5   7
ATOM      7  O   LIG    1       -4.380  49.094  -1.248  0.00  0.00    -0.507 OA
ATOM      8  H   LIG    1       -4.474  48.649  -2.108  0.00  0.00    +0.292 HD
ENDBRANCH   5   7
BRANCH   2   9
ATOM      9  C   LIG    1       -0.596  46.382   2.004  0.00  0.00    +0.189 C 
BRANCH   9  10
ATOM     10  O   LIG    1       -0.660  44.969   1.753  0.00  0.00    -0.382 OA
ATOM     11  H   LIG    1       -1.012  44.560   2.571  0.00  0.00    +0.210 HD
ENDBRANCH   9  10
BRANCH   9  12
ATOM     12  C   LIG    1       -0.849  46.568   3.514  0.00  0.00    +0.164 C 
BRANCH  12  13
ATOM     13  N   LIG    1       -0.004  47.696   4.014  0.00  0.00    +0.221 N 
ATOM     14  H   LIG    1       -0.093  47.851   5.023  0.00  0.00    +0.200 HD
ATOM     15  H   LIG    1       -0.315  48.548   3.517  0.00  0.00    +0.200 HD
ATOM     16  H   LIG    1        0.987  47.554   3.779  0.00  0.00    +0.200 HD
ENDBRANCH  12  13
ENDBRANCH   9  12
ENDBRANCH   2   9
TORSDOF 5
ENDMDL
MODEL 9
REMARK VINA RESULT:      -4.5      9.358     10.743
REMARK  Name = ZINC00000558
REMARK                            x       y       z     vdW  Elec       q    Type
REMARK                         _______ _______ _______ _____ _____    ______ ____
ROOT
ATOM      1  C   LIG    1       -3.074  45.719   0.655  0.00  0.00    +0.010 A 
ATOM      2  C   LIG    1       -3.685  46.567   1.598  0.00  0.00    -0.014 A 
ATOM      3  C   LIG    1       -3.422  47.945   1.525  0.00  0.00    +0.010 A 
ATOM      4  C   LIG    1       -2.575  48.460   0.542  0.00  0.00    +0.046 A 
ATOM      5  C   LIG    1       -1.988  47.604  -0.381  0.00  0.00    +0.117 A 
ATOM      6  C   LIG    1       -2.232  46.238  -0.333  0.00  0.00    +0.046 A 
ENDROOT
BRANCH   5   7
ATOM      7  O   LIG    1       -1.180  48.160  -1.324  0.00  0.00    -0.507 OA
ATOM      8  H   LIG    1       -0.642  48.863  -0.921  0.00  0.00    +0.292 HD
ENDBRANCH   5   7
BRANCH   2   9
ATOM      9  C   LIG    1       -4.597  45.983   2.656  0.00  0.00    +0.189 C 
BRANCH   9  10
ATOM     10  O   LIG    1       -5.802  46.759   2.747  0.00  0.00    -0.382 OA
ATOM     11  H   LIG    1       -5.878  47.040   3.683  0.00  0.00    +0.210 HD
ENDBRANCH   9  10
BRANCH   9  12
ATOM     12  C   LIG    1       -3.967  45.987   4.063  0.00  0.00    +0.164 C 
BRANCH  12  13
ATOM     13  N   LIG    1       -4.150  44.638   4.683  0.00  0.00    +0.221 N 
ATOM     14  H   LIG    1       -3.438  43.961   4.393  0.00  0.00    +0.200 HD
ATOM     15  H   LIG    1       -5.079  44.294   4.383  0.00  0.00    +0.200 HD
ATOM     16  H   LIG    1       -4.167  44.696   5.709  0.00  0.00    +0.200 HD
ENDBRANCH  12  13
ENDBRANCH   9  12
ENDBRANCH   2   9
TORSDOF 5
ENDMDL
