MODEL 1
REMARK VINA RESULT:      -3.8      0.000      0.000
REMARK  Name = ZINC00000573
REMARK                            x       y       z     vdW  Elec       q    Type
REMARK                         _______ _______ _______ _____ _____    ______ ____
ROOT
ATOM      1  C   LIG    1       -3.489  46.942   1.451  0.00  0.00    +0.167 C 
ENDROOT
BRANCH   1   2
ATOM      2  C   LIG    1       -2.618  48.140   1.013  0.00  0.00    +0.192 C 
ATOM      3  O   LIG    1       -1.432  47.677   0.348  0.00  0.00    -0.343 OA
ATOM      4  C   LIG    1       -1.710  47.777  -1.057  0.00  0.00    +0.323 C 
ATOM      5  O   LIG    1       -3.060  48.205  -1.230  0.00  0.00    -0.351 OA
ATOM      6  C   LIG    1       -3.322  48.957  -0.049  0.00  0.00    +0.199 C 
ENDBRANCH   1   2
BRANCH   1   8
ATOM      7  C   LIG    1       -2.258  45.234   2.787  0.00  0.00    +0.192 C 
ATOM      8  N   LIG    1       -3.213  46.424   2.896  0.00  0.00    +0.239 N 
ATOM      9  C   LIG    1       -2.542  47.497   3.751  0.00  0.00    +0.192 C 
ATOM     10  C   LIG    1       -4.489  45.959   3.580  0.00  0.00    +0.192 C 
ENDBRANCH   1   8
TORSDOF 2
ENDMDL
MODEL 2
REMARK VINA RESULT:      -3.8      1.246      1.712
REMARK  Name = ZINC00000573
REMARK                            x       y       z     vdW  Elec       q    Type
REMARK                         _______ _______ _______ _____ _____    ______ ____
ROOT
ATOM      1  C   LIG    1       -2.705  47.693   2.570  0.00  0.00    +0.167 C 
ENDROOT
BRANCH   1   2
ATOM      2  C   LIG    1       -3.413  47.213   1.283  0.00  0.00    +0.192 C 
ATOM      3  O   LIG    1       -4.364  48.194   0.841  0.00  0.00    -0.343 OA
ATOM      4  C   LIG    1       -3.700  48.944  -0.187  0.00  0.00    +0.323 C 
ATOM      5  O   LIG    1       -2.354  48.483  -0.298  0.00  0.00    -0.351 OA
ATOM      6  C   LIG    1       -2.434  47.127   0.131  0.00  0.00    +0.199 C 
ENDBRANCH   1   2
BRANCH   1   8
ATOM      7  C   LIG    1       -1.824  45.710   3.797  0.00  0.00    +0.192 C 
ATOM      8  N   LIG    1       -2.919  46.779   3.814  0.00  0.00    +0.239 N 
ATOM      9  C   LIG    1       -2.792  47.571   5.114  0.00  0.00    +0.192 C 
ATOM     10  C   LIG    1       -4.272  46.085   3.777  0.00  0.00    +0.192 C 
ENDBRANCH   1   8
TORSDOF 2
ENDMDL
MODEL 3
REMARK VINA RESULT:      -3.8      2.214      4.058
REMARK  Name = ZINC00000573
REMARK                            x       y       z     vdW  Elec       q    Type
REMARK                         _______ _______ _______ _____ _____    ______ ____
ROOT
ATOM      1  C   LIG    1       -2.672  48.179   1.547  0.00  0.00    +0.167 C 
ENDROOT
BRANCH   1   2
ATOM      2  C   LIG    1       -2.151  47.014   2.418  0.00  0.00    +0.192 C 
ATOM      3  O   LIG    1       -0.743  47.166   2.664  0.00  0.00    -0.343 OA
ATOM      4  C   LIG    1       -0.638  47.764   3.965  0.00  0.00    +0.323 C 
ATOM      5  O   LIG    1       -1.949  48.045   4.450  0.00  0.00    -0.351 OA
ATOM      6  C   LIG    1       -2.757  47.067   3.804  0.00  0.00    +0.199 C 
ENDBRANCH   1   2
BRANCH   1   8
ATOM      7  C   LIG    1       -3.504  46.440  -0.033  0.00  0.00    +0.192 C 
ATOM      8  N   LIG    1       -2.871  47.831   0.041  0.00  0.00    +0.239 N 
ATOM      9  C   LIG    1       -3.815  48.821  -0.638  0.00  0.00    +0.192 C 
ATOM     10  C   LIG    1       -1.548  47.800  -0.710  0.00  0.00    +0.192 C 
ENDBRANCH   1   8
TORSDOF 2
ENDMDL
MODEL 4
REMARK VINA RESULT:      -3.7      2.466      4.263
REMARK  Name = ZINC00000573
REMARK                            x       y       z     vdW  Elec       q    Type
REMARK                         _______ _______ _______ _____ _____    ______ ____
ROOT
ATOM      1  C   LIG    1       -1.788  47.215   1.695  0.00  0.00    +0.167 C 
ENDROOT
BRANCH   1   2
ATOM      2  C   LIG    1       -2.440  47.818   2.959  0.00  0.00    +0.192 C 
ATOM      3  O   LIG    1       -3.391  46.898   3.518  0.00  0.00    -0.343 OA
ATOM      4  C   LIG    1       -2.701  46.227   4.584  0.00  0.00    +0.323 C 
ATOM      5  O   LIG    1       -1.346  46.671   4.607  0.00  0.00    -0.351 OA
ATOM      6  C   LIG    1       -1.419  47.985   4.064  0.00  0.00    +0.199 C 
ENDBRANCH   1   2
BRANCH   1   8
ATOM      7  C   LIG    1       -3.172  48.951   0.561  0.00  0.00    +0.192 C 
ATOM      8  N   LIG    1       -2.479  47.603   0.353  0.00  0.00    +0.239 N 
ATOM      9  C   LIG    1       -1.459  47.759  -0.773  0.00  0.00    +0.192 C 
ATOM     10  C   LIG    1       -3.528  46.579  -0.056  0.00  0.00    +0.192 C 
ENDBRANCH   1   8
TORSDOF 2
ENDMDL
MODEL 5
REMARK VINA RESULT:      -3.7      1.474      2.224
REMARK  Name = ZINC00000573
REMARK                            x       y       z     vdW  Elec       q    Type
REMARK                         _______ _______ _______ _____ _____    ______ ____
ROOT
ATOM      1  C   LIG    1       -2.100  46.993   1.649  0.00  0.00    +0.167 C 
ENDROOT
BRANCH   1   2
ATOM      2  C   LIG    1       -3.063  48.153   1.315  0.00  0.00    +0.192 C 
ATOM      3  O   LIG    1       -2.626  48.839   0.131  0.00  0.00    -0.343 OA
ATOM      4  C   LIG    1       -3.414  48.301  -0.943  0.00  0.00    +0.323 C 
ATOM      5  O   LIG    1       -4.239  47.257  -0.430  0.00  0.00    -0.351 OA
ATOM      6  C   LIG    1       -4.429  47.625   0.932  0.00  0.00    +0.199 C 
ENDBRANCH   1   2
BRANCH   1   8
ATOM      7  C   LIG    1       -2.028  48.223   3.816  0.00  0.00    +0.192 C 
ATOM      8  N   LIG    1       -1.702  46.884   3.152  0.00  0.00    +0.239 N 
ATOM      9  C   LIG    1       -2.502  45.793   3.861  0.00  0.00    +0.192 C 
ATOM     10  C   LIG    1       -0.215  46.609   3.323  0.00  0.00    +0.192 C 
ENDBRANCH   1   8
TORSDOF 2
ENDMDL
MODEL 6
REMARK VINA RESULT:      -3.6      2.449      4.260
REMARK  Name = ZINC00000573
REMARK                            x       y       z     vdW  Elec       q    Type
REMARK                         _______ _______ _______ _____ _____    ______ ____
ROOT
ATOM      1  C   LIG    1       -3.006  47.270   1.707  0.00  0.00    +0.167 C 
ENDROOT
BRANCH   1   2
ATOM      2  C   LIG    1       -3.731  45.932   1.974  0.00  0.00    +0.192 C 
ATOM      3  O   LIG    1       -2.890  45.053   2.739  0.00  0.00    -0.343 OA
ATOM      4  C   LIG    1       -3.321  45.192   4.102  0.00  0.00    +0.323 C 
ATOM      5  O   LIG    1       -4.335  46.194   4.165  0.00  0.00    -0.351 OA
ATOM      6  C   LIG    1       -4.931  46.142   2.873  0.00  0.00    +0.199 C 
ENDBRANCH   1   2
BRANCH   1   8
ATOM      7  C   LIG    1       -3.717  46.647  -0.600  0.00  0.00    +0.192 C 
ATOM      8  N   LIG    1       -3.013  47.732   0.218  0.00  0.00    +0.239 N 
ATOM      9  C   LIG    1       -3.787  49.037   0.045  0.00  0.00    +0.192 C 
ATOM     10  C   LIG    1       -1.602  47.907  -0.324  0.00  0.00    +0.192 C 
ENDBRANCH   1   8
TORSDOF 2
ENDMDL
MODEL 7
REMARK VINA RESULT:      -3.5      1.314      1.966
REMARK  Name = ZINC00000573
REMARK                            x       y       z     vdW  Elec       q    Type
REMARK                         _______ _______ _______ _____ _____    ______ ____
ROOT
ATOM      1  C   LIG    1       -3.158  46.674   0.945  0.00  0.00    +0.167 C 
ENDROOT
BRANCH   1   2
ATOM      2  C   LIG    1       -1.731  46.476   0.388  0.00  0.00    +0.192 C 
ATOM      3  O   LIG    1       -1.738  45.503  -0.668  0.00  0.00    -0.343 OA
ATOM      4  C   LIG    1       -1.766  46.256  -1.891  0.00  0.00    +0.323 C 
ATOM      5  O   LIG    1       -1.862  47.644  -1.575  0.00  0.00    -0.351 OA
ATOM      6  C   LIG    1       -1.241  47.735  -0.296  0.00  0.00    +0.199 C 
ENDBRANCH   1   2
BRANCH   1   8
ATOM      7  C   LIG    1       -2.646  47.345   3.291  0.00  0.00    +0.192 C 
ATOM      8  N   LIG    1       -3.337  46.277   2.442  0.00  0.00    +0.239 N 
ATOM      9  C   LIG    1       -4.813  46.238   2.834  0.00  0.00    +0.192 C 
ATOM     10  C   LIG    1       -2.699  44.930   2.747  0.00  0.00    +0.192 C 
ENDBRANCH   1   8
TORSDOF 2
ENDMDL
MODEL 8
REMARK VINA RESULT:      -3.5      2.520      3.994
REMARK  Name = ZINC00000573
REMARK                            x       y       z     vdW  Elec       q    Type
REMARK                         _______ _______ _______ _____ _____    ______ ____
ROOT
ATOM      1  C   LIG    1       -2.883  45.919   0.377  0.00  0.00    +0.167 C 
ENDROOT
BRANCH   1   2
ATOM      2  C   LIG    1       -3.499  47.067   1.208  0.00  0.00    +0.192 C 
ATOM      3  O   LIG    1       -4.922  47.114   1.014  0.00  0.00    -0.343 OA
ATOM      4  C   LIG    1       -5.490  46.424   2.139  0.00  0.00    +0.323 C 
ATOM      5  O   LIG    1       -4.433  45.901   2.940  0.00  0.00    -0.351 OA
ATOM      6  C   LIG    1       -3.354  46.796   2.690  0.00  0.00    +0.199 C 
ENDBRANCH   1   2
BRANCH   1   8
ATOM      7  C   LIG    1       -1.520  45.716  -1.700  0.00  0.00    +0.192 C 
ATOM      8  N   LIG    1       -1.501  46.246  -0.265  0.00  0.00    +0.239 N 
ATOM      9  C   LIG    1       -1.253  47.752  -0.315  0.00  0.00    +0.192 C 
ATOM     10  C   LIG    1       -0.360  45.572   0.483  0.00  0.00    +0.192 C 
ENDBRANCH   1   8
TORSDOF 2
ENDMDL
MODEL 9
REMARK VINA RESULT:      -3.5      8.861     10.255
REMARK  Name = ZINC00000573
REMARK                            x       y       z     vdW  Elec       q    Type
REMARK                         _______ _______ _______ _____ _____    ______ ____
ROOT
ATOM      1  C   LIG    1        4.040  44.730   7.705  0.00  0.00    +0.167 C 
ENDROOT
BRANCH   1   2
ATOM      2  C   LIG    1        2.937  43.734   8.126  0.00  0.00    +0.192 C 
ATOM      3  O   LIG    1        2.844  43.668   9.558  0.00  0.00    -0.343 OA
ATOM      4  C   LIG    1        1.754  44.532   9.917  0.00  0.00    +0.323 C 
ATOM      5  O   LIG    1        1.263  45.167   8.739  0.00  0.00    -0.351 OA
ATOM      6  C   LIG    1        1.571  44.235   7.707  0.00  0.00    +0.199 C 
ENDBRANCH   1   2
BRANCH   1   8
ATOM      7  C   LIG    1        6.097  45.266   6.403  0.00  0.00    +0.192 C 
ATOM      8  N   LIG    1        5.023  44.198   6.619  0.00  0.00    +0.239 N 
ATOM      9  C   LIG    1        5.712  42.913   7.075  0.00  0.00    +0.192 C 
ATOM     10  C   LIG    1        4.317  43.948   5.295  0.00  0.00    +0.192 C 
ENDBRANCH   1   8
TORSDOF 2
ENDMDL
